* File: pc3d01.dist.sp.pex
* Created: Sun Jul  4 12:26:00 2010
* Program "Calibre xRC"
* Version "v2008.4_19.14"
* Nominal Temperature: 27C
* Circuit Temperature: 27C
* 
.subckt PM_PC3D01%VSS 657 816 887 909 961 973 976 982
c0 982 0 88.7562f
c1 973 0 47.5449f
c2 960 0 54.6423f
c3 958 0 2.3768f
c4 945 0 1.21678f
c5 926 0 2.40161f
c6 920 0 12.3339f
c7 919 0 1.77829f
c8 906 0 1.88751f
c9 898 0 14.8899f
c10 884 0 1.45648f
c11 881 0 2.50616f
c12 844 0 25.3375f
c13 831 0 0.0691108f
c14 830 0 0.0657389f
c15 829 0 6.02282f
c16 828 0 0.745402f
c17 827 0 0.269279f
c18 824 0 0.0372194f
c19 816 0 2.07055f
c20 814 0 6.60748f
c21 813 0 0.218207f
c22 811 0 0.69473f
c23 804 0 8.61341f
c24 801 0 0.255493f
c25 800 0 0.0856199f
c26 799 0 1.18476f
c27 695 0 1.98507f
c28 687 0 1.40824f
c29 685 0 0.184759f
c30 683 0 0.271526f
c31 680 0 24.7575f
c32 675 0 1.0863f
c33 674 0 6.52093f
c34 668 0 2.03682f
c35 664 0 0.135881f
c36 663 0 2.4667f
c37 662 0 0.117466f
c38 661 0 2.25879f
c39 657 0 0.00279637f
c40 573 0 0.162892f
c41 571 0 0.72248f
c42 569 0 0.203897f
c43 544 0 2.94311f
c44 530 0 3.05953f
c45 528 0 0.031054f
c46 524 0 6.24623f
c47 523 0 0.161087f
c48 508 0 5.68764f
c49 505 0 3.2536f
r50 980 982 0.000702051 
r51 979 980 0.0832563 
r52 976 979 0.000703354 
r53 972 973 0.00318245 
r54 969 970 0.167059 
r55 968 969 0.0871386 
r56 967 968 0.0414357 
r57 966 967 0.0141176 
r58 965 966 0.00135593 
r59 958 972 0.461538 
r60 952 969 0.0535714 
r61 950 967 1.5 
r62 950 952 1.612 
r63 945 948 0.045 
r64 945 968 0.666667 
r65 926 965 0.6 
r66 924 960 0.0297924 
r67 924 926 3.23529 
r68 919 960 0.0158586 
r69 919 920 1.0295 
r70 913 972 0.00119641 
r71 970 913 0.110269 
r72 911 913 0.428571 
r73 909 911 0.189 
r74 906 909 0.013 
r75 906 980 0.131579 
r76 902 903 0.570964 
r77 901 902 1.12284 
r78 898 901 0.628223 
r79 898 970 0.3 
r80 891 965 0.0882951 
r81 961 891 0.00438684 
r82 889 891 0.428571 
r83 887 889 0.189 
r84 884 887 0.013 
r85 884 979 0.131579 
r86 954 881 1 
r87 843 878 0.02 
r88 843 844 0.9662 
r89 829 952 2.7305 
r90 829 830 0.0338756 
r91 824 950 1.283 
r92 823 831 0.0338756 
r93 822 830 0.0338756 
r94 819 831 0.00880368 
r95 818 830 0.00880368 
r96 816 873 2.59036 
r97 954 816 1.07807 
r98 819 816 0.88 
r99 818 816 1.064 
r100 815 960 0.0158586 
r101 815 816 1.9975 
r102 814 831 0.0338756 
r103 827 813 0.0632911 
r104 813 811 0.0574488 
r105 810 824 0.0448201 
r106 807 958 1.518 
r107 806 958 0.426 
r108 804 873 1.08482 
r109 801 954 1.06072 
r110 800 920 0.0425 
r111 799 800 0.0448201 
r112 799 810 2.13041 
r113 814 697 0.592 
r114 816 697 1.93 
r115 695 866 3 
r116 866 687 0.29193 
r117 902 687 1.5 
r118 697 685 3 
r119 901 685 3 
r120 683 873 3 
r121 903 683 3 
r122 680 895 1.1314 
r123 680 966 0.125 
r124 679 881 0.0075 
r125 878 679 0.056 
r126 895 679 0.24 
r127 677 828 0.102486 
r128 677 827 0.0155975 
r129 844 677 1 
r130 675 823 0.6415 
r131 807 675 0.0446983 
r132 674 822 0.6415 
r133 806 674 0.0446983 
r134 673 695 0.831219 
r135 672 695 0.572683 
r136 667 668 1.37048 
r137 664 673 0.0448242 
r138 664 665 0.678222 
r139 663 668 0.0447675 
r140 663 665 0.650667 
r141 662 672 0.0446983 
r142 661 667 0.0447067 
r143 661 662 1.45854 
r144 948 657 0.31875 
r145 572 573 0.147619 
r146 568 569 0.14988 
r147 804 568 0.0380723 
r148 565 567 0.143333 
r149 801 564 0.0385542 
r150 562 564 0.14506 
r151 816 561 0.159 
r152 544 816 0.159 
r153 543 573 0.02 
r154 543 561 1.247 
r155 542 569 0.02 
r156 542 544 1.243 
r157 816 541 0.192 
r158 539 816 0.192 
r159 538 539 0.342 
r160 816 538 0.192 
r161 536 816 0.192 
r162 535 536 0.342 
r163 816 535 0.192 
r164 533 816 0.192 
r165 532 533 0.342 
r166 816 532 0.192 
r167 530 816 0.192 
r168 529 572 0.02 
r169 529 541 1.214 
r170 528 571 0.04 
r171 528 530 0.243 
r172 526 568 0.02 
r173 526 571 0.938734 
r174 524 572 0.0380952 
r175 524 828 4.80524 
r176 523 811 0.555238 
r177 523 567 0.0380952 
r178 816 519 0.159 
r179 517 816 0.159 
r180 516 517 0.408 
r181 816 516 0.159 
r182 514 816 0.159 
r183 513 514 0.408 
r184 816 513 0.159 
r185 511 816 0.159 
r186 510 511 0.408 
r187 816 510 0.159 
r188 508 816 0.159 
r189 507 567 0.02 
r190 507 519 1.247 
r191 506 564 0.02 
r192 506 508 1.243 
r193 505 565 0.02 
r194 504 562 0.02 
r195 504 505 4.69271 
.ends

.subckt PM_PC3D01%U14_MN4$11_gate 98 103 219 224 340 345 410 415 420 425 430
+ 435 449
c0 612 0 0.264624f
c1 608 0 0.432377f
c2 603 0 0.431723f
c3 598 0 0.431999f
c4 593 0 0.433563f
c5 588 0 0.434391f
c6 576 0 2.53433f
c7 572 0 0.236421f
c8 554 0 0.0501222f
c9 550 0 0.126441f
c10 548 0 1.09628f
c11 543 0 1.10468f
c12 538 0 1.09628f
c13 533 0 1.12251f
c14 529 0 0.847498f
c15 523 0 0.859973f
c16 521 0 0.170165f
c17 519 0 0.402049f
c18 516 0 0.430085f
c19 515 0 0.863899f
c20 514 0 0.804241f
c21 513 0 0.877326f
c22 511 0 0.872867f
c23 505 0 0.156445f
c24 504 0 8.9327f
c25 501 0 7.03755f
c26 499 0 0.14249f
c27 498 0 0.267597f
c28 496 0 0.474738f
c29 492 0 15.6155f
c30 487 0 1.41515f
c31 485 0 0.126896f
c32 480 0 0.113594f
c33 474 0 0.680018f
c34 473 0 0.0631592f
c35 464 0 0.535213f
c36 456 0 0.535717f
c37 450 0 0.300832f
c38 449 0 0.233998f
c39 442 0 0.16744f
c40 441 0 0.607864f
c41 440 0 0.168715f
c42 439 0 0.608092f
c43 438 0 0.169627f
c44 437 0 0.540411f
c45 435 0 3.10111f
c46 430 0 3.04886f
c47 425 0 3.04886f
c48 420 0 3.04886f
c49 415 0 3.04886f
c50 410 0 3.10222f
c51 357 0 0.974632f
c52 345 0 3.04886f
c53 344 0 0.168601f
c54 340 0 3.04886f
c55 339 0 0.169285f
c56 236 0 0.971967f
c57 224 0 3.04886f
c58 223 0 0.168289f
c59 219 0 3.04886f
c60 218 0 0.169346f
c61 115 0 0.975149f
c62 103 0 3.04886f
c63 102 0 0.169399f
c64 98 0 3.04886f
c65 97 0 0.169627f
r66 570 572 6 
r67 556 612 0.00341463 
r68 554 556 3 
r69 554 558 0.0138182 
r70 550 552 0.102703 
r71 547 608 0.00439024 
r72 605 547 0.0512195 
r73 545 547 1.5 
r74 545 548 0.117757 
r75 542 603 0.00195122 
r76 600 542 0.0536585 
r77 540 542 1.5 
r78 540 543 0.118253 
r79 537 598 0.000487805 
r80 595 537 0.055122 
r81 535 537 1.5 
r82 535 538 0.11974 
r83 531 593 0.00292683 
r84 590 531 0.0526829 
r85 529 531 1.5 
r86 529 533 0.0678788 
r87 525 588 0.00536585 
r88 585 525 0.0502439 
r89 523 525 1.5 
r90 523 527 0.0693333 
r91 558 521 0.0697717 
r92 554 519 0.0138182 
r93 518 519 0.141735 
r94 517 550 0.02 
r95 516 521 0.0586021 
r96 516 517 0.36 
r97 545 515 0.0999055 
r98 514 552 0.02 
r99 514 515 1.035 
r100 540 513 0.100897 
r101 548 513 1.437 
r102 535 511 0.0989138 
r103 543 511 1.448 
r104 509 533 0.0200093 
r105 538 509 1.437 
r106 507 527 0.02 
r107 533 507 1.472 
r108 504 518 0.0586021 
r109 504 505 10.913 
r110 501 572 6 
r111 499 501 3.75099 
r112 581 498 0.0521951 
r113 496 498 3 
r114 495 499 0.0509474 
r115 495 496 0.00866667 
r116 494 505 0.0610788 
r117 494 496 0.142 
r118 570 492 15.6586 
r119 490 492 6 
r120 487 490 1.388 
r121 487 576 6 
r122 484 576 3.376 
r123 480 485 0.0933197 
r124 473 484 0.0447517 
r125 485 473 0.157176 
r126 480 449 0.0666667 
r127 442 474 1.85294 
r128 441 464 5.05882 
r129 440 464 5.05882 
r130 439 456 5.05882 
r131 438 456 5.05882 
r132 437 450 1.85294 
r133 432 442 3.88985 
r134 432 435 183.96 
r135 427 441 3.88985 
r136 427 430 183.96 
r137 422 440 3.88985 
r138 422 425 183.96 
r139 417 439 3.88985 
r140 417 420 183.96 
r141 412 438 3.88985 
r142 412 415 183.96 
r143 407 437 3.88985 
r144 407 410 183.96 
r145 350 357 5.05882 
r146 349 357 5.05882 
r147 344 350 3.88985 
r148 344 345 183.96 
r149 339 349 3.88985 
r150 339 340 183.96 
r151 464 298 0.00142683 
r152 603 298 3 
r153 357 287 0.00133393 
r154 605 287 3 
r155 262 357 0.0278113 
r156 608 262 3 
r157 474 251 0.00142683 
r158 612 251 3 
r159 229 236 5.05882 
r160 228 236 5.05882 
r161 223 229 3.88985 
r162 223 224 183.96 
r163 218 228 3.88985 
r164 218 219 183.96 
r165 456 177 0.00142683 
r166 593 177 3 
r167 236 166 0.00133393 
r168 595 166 3 
r169 141 236 0.0278113 
r170 598 141 3 
r171 464 130 0.0277856 
r172 600 130 3 
r173 108 115 5.05882 
r174 107 115 5.05882 
r175 102 108 3.88985 
r176 102 103 183.96 
r177 97 107 3.88985 
r178 97 98 183.96 
r179 450 56 0.00142683 
r180 581 56 3 
r181 115 45 0.00133393 
r182 585 45 3 
r183 20 115 0.0278113 
r184 588 20 3 
r185 456 9 0.0277856 
r186 590 9 3 
.ends

.subckt PM_PC3D01%VSSO 167 330 493 569 571 599 885 889 896 925 932 944 955 957
+ 960 964 971 980 986 998 1041 1047 1051 1057
c0 1057 0 31.3233f
c1 1044 0 3.52205f
c2 1041 0 26.0006f
c3 1034 0 7.92488f
c4 1032 0 6.96209f
c5 1026 0 6.96173f
c6 1021 0 6.96175f
c7 1015 0 6.96188f
c8 1010 0 6.96027f
c9 1001 0 1.62567f
c10 998 0 0.00199756f
c11 993 0 8.95235f
c12 986 0 0.319472f
c13 964 0 0.840215f
c14 960 0 1.37894f
c15 957 0 0.00104108f
c16 955 0 8.25608e-19
c17 953 0 8.96457f
c18 942 0 7.84947f
c19 938 0 1.27875f
c20 928 0 1.65601f
c21 925 0 58.2621f
c22 892 0 1.33521f
c23 889 0 10.6369f
c24 882 0 0.191701f
c25 874 0 2.28617f
c26 872 0 0.0825798f
c27 871 0 0.199022f
c28 869 0 0.0927534f
c29 867 0 1.47368f
c30 866 0 0.0203358f
c31 863 0 0.107983f
c32 862 0 0.0484324f
c33 861 0 1.50948f
c34 859 0 0.0594287f
c35 858 0 0.293756f
c36 850 0 12.3076f
c37 849 0 0.725625f
c38 846 0 2.24828f
c39 842 0 0.84818f
c40 836 0 0.708327f
c41 835 0 3.24323f
c42 833 0 0.383003f
c43 832 0 0.713156f
c44 831 0 0.297488f
c45 830 0 3.26283f
c46 829 0 0.383249f
c47 828 0 1.6124f
c48 825 0 0.0651132f
c49 824 0 0.31734f
c50 791 0 0.122915f
c51 790 0 8.73234f
c52 760 0 0.269574f
c53 756 0 7.03694f
c54 753 0 0.146306f
c55 604 0 0.275483f
c56 600 0 0.231134f
c57 599 0 0.339125f
c58 593 0 0.527353f
c59 591 0 0.127757f
c60 587 0 0.238183f
c61 583 0 0.981019f
c62 582 0 0.0131245f
c63 580 0 0.136059f
c64 574 0 0.0153252f
c65 571 0 0.343703f
c66 570 0 0.193042f
c67 569 0 0.437208f
c68 506 0 5.37124f
c69 408 0 14.0382f
c70 358 0 14.0387f
c71 245 0 14.0387f
c72 195 0 14.0383f
c73 32 0 14.0362f
c74 10 0 0.146306f
r75 1055 1057 0.00282778 
r76 1054 1055 0.355444 
r77 1051 1054 0.00283333 
r78 1046 1048 0.00445269 
r79 1046 1047 0.02 
r80 1044 1046 0.00667904 
r81 1038 1039 0.305561 
r82 1003 1004 0.0140639 
r83 997 998 0.0126606 
r84 1034 995 0.0113761 
r85 993 995 0.0638298 
r86 990 1039 2 
r87 986 990 0.000761905 
r88 955 997 0.013211 
r89 993 955 0.000917431 
r90 953 955 0.000913242 
r91 953 1003 0.0638298 
r92 943 944 0.02 
r93 942 1003 0.0113242 
r94 940 942 0.0327869 
r95 940 943 0.0186572 
r96 938 940 0.029258 
r97 935 1055 0.357143 
r98 932 935 0.21 
r99 930 1041 0.00544385 
r100 1039 930 0.0327273 
r101 928 930 1 
r102 928 932 0.445 
r103 923 925 0.00612761 
r104 923 1034 0.0327869 
r105 1028 921 0.00301483 
r106 921 1032 0.00301741 
r107 919 921 0.0266667 
r108 919 923 0.0287785 
r109 980 918 0.130435 
r110 918 1026 0.00301741 
r111 1023 918 0.00301741 
r112 916 918 0.0266667 
r113 916 919 0.0242129 
r114 1017 915 0.00301483 
r115 915 1021 0.00301741 
r116 913 915 0.0266667 
r117 913 916 0.0242129 
r118 912 913 0.000615582 
r119 971 911 0.130435 
r120 911 1015 0.00301741 
r121 1012 911 0.00301741 
r122 909 911 0.0266667 
r123 909 912 0.0235973 
r124 1006 908 0.00301483 
r125 908 1010 0.00301741 
r126 906 908 0.0266667 
r127 906 909 0.0242129 
r128 905 938 0.02 
r129 905 906 0.0277012 
r130 943 902 0.427466 
r131 899 1054 0.357143 
r132 896 899 0.21 
r133 894 1050 0.148897 
r134 1048 894 0.0151391 
r135 892 894 1 
r136 892 896 0.445 
r137 881 1038 0.11615 
r138 881 882 0.00185772 
r139 873 882 0.0857909 
r140 873 874 3.63314 
r141 871 874 0.0448303 
r142 871 872 0.199481 
r143 868 872 0.0447008 
r144 868 869 0.0831579 
r145 866 867 0.322105 
r146 862 863 0.135 
r147 861 862 0.0448391 
r148 860 861 2.75862 
r149 858 860 0.044715 
r150 858 859 0.466667 
r151 964 857 0.04 
r152 855 857 0.75 
r153 960 854 0.365 
r154 852 854 0.6 
r155 852 855 0.0226738 
r156 851 1044 0.02 
r157 851 852 0.105134 
r158 850 882 0.00185772 
r159 850 855 0.0460963 
r160 849 859 0.0450432 
r161 1050 849 1.29371 
r162 846 1001 6 
r163 866 842 0.0429996 
r164 842 846 0.00571429 
r165 838 998 0.230275 
r166 836 993 0.210275 
r167 834 957 0.229041 
r168 834 835 0.0863581 
r169 832 953 0.209132 
r170 832 833 0.0863581 
r171 838 830 0.0861375 
r172 830 831 0.132033 
r173 836 829 0.0861375 
r174 828 1001 0.0296296 
r175 827 828 3.74 
r176 824 827 0.0446983 
r177 824 825 0.542857 
r178 821 825 0.0449572 
r179 791 955 0.128 
r180 790 831 0.0473573 
r181 790 955 0.126 
r182 760 791 0.0473573 
r183 835 760 0.132033 
r184 756 955 0.126 
r185 754 955 0.128 
r186 753 754 0.0473573 
r187 753 833 0.250407 
r188 867 600 2 
r189 599 600 0.0452632 
r190 1038 593 0.75 
r191 591 604 0.052373 
r192 869 591 3 
r193 821 587 0.2775 
r194 863 587 6 
r195 582 593 0.437895 
r196 582 583 0.0407126 
r197 578 580 0.149412 
r198 574 599 0.0642105 
r199 572 580 0.02 
r200 572 583 2.01647 
r201 570 578 0.02 
r202 570 571 0.221176 
r203 604 569 0.0556522 
r204 574 560 0.0480693 
r205 560 1001 0.307169 
r206 509 889 0.0419737 
r207 885 509 0.0413851 
r208 912 509 0.00128205 
r209 902 506 2.21804 
r210 506 1048 0.6 
r211 921 493 0.130435 
r212 980 408 0.00313778 
r213 1026 408 0.0652174 
r214 493 398 0.0031351 
r215 1028 398 0.0652174 
r216 358 493 0.00314046 
r217 1032 358 0.0652174 
r218 995 347 0.0141284 
r219 347 997 0.0652174 
r220 915 330 0.130435 
r221 971 245 0.00313778 
r222 1015 245 0.0652174 
r223 330 235 0.0031351 
r224 1017 235 0.0652174 
r225 195 330 0.00314046 
r226 1021 195 0.0652174 
r227 185 980 0.00313778 
r228 1023 185 0.0652174 
r229 908 167 0.130435 
r230 82 957 0.0126027 
r231 955 82 0.0131507 
r232 1004 82 0.0652174 
r233 167 72 0.0031351 
r234 1006 72 0.0652174 
r235 32 167 0.00314046 
r236 1010 32 0.0652174 
r237 22 971 0.00313778 
r238 1012 22 0.0652174 
r239 10 829 0.250407 
r240 10 756 0.0473573 
.ends

.subckt PM_PC3D01%CIN 14 19 26 59 103 145
c0 141 0 7.07074f
c1 132 0 0.420752f
c2 124 0 15.6439f
c3 116 0 4.21592f
c4 111 0 0.176384f
c5 107 0 0.143541f
c6 105 0 5.71899f
c7 100 0 0.112303f
c8 98 0 0.0723692f
c9 96 0 0.0379464f
c10 95 0 3.153f
c11 94 0 3.30766f
c12 92 0 0.0895149f
c13 86 0 1.41181f
c14 85 0 0.0898897f
c15 82 0 0.0375884f
c16 81 0 0.855486f
c17 80 0 0.0338006f
c18 76 0 1.37568f
c19 73 0 0.0345401f
c20 72 0 0.568273f
c21 68 0 7.74777f
c22 62 0 0.246801f
c23 61 0 0.187286f
c24 59 0 0.582869f
c25 42 0 1.20908f
c26 38 0 0.0360401f
c27 35 0 0.0555356f
c28 30 0 0.418875f
c29 26 0 1.16772f
c30 24 0 0.062646f
c31 23 0 0.3608f
c32 19 0 1.02343f
c33 14 0 0.564503f
r34 122 124 10.3871 
r35 120 122 5.01286 
r36 113 141 6 
r37 132 111 6 
r38 109 111 6 
r39 109 113 4.46429 
r40 124 107 6 
r41 105 107 6 
r42 105 109 6.27286 
r43 100 145 0.0207123 
r44 100 144 0.0568712 
r45 98 100 6 
r46 98 103 0.0207123 
r47 97 141 11.4788 
r48 95 97 0.04509 
r49 95 96 7.86286 
r50 127 94 4.69857 
r51 92 94 6 
r52 144 92 0.285714 
r53 90 96 0.0446983 
r54 90 92 0.0457143 
r55 83 85 0.107847 
r56 83 127 6 
r57 81 85 0.0448046 
r58 81 82 1.56857 
r59 80 82 0.0448488 
r60 79 80 0.103226 
r61 76 120 6 
r62 74 76 2.17429 
r63 72 79 0.0448488 
r64 72 73 1.35143 
r65 116 70 7.37143 
r66 68 70 6 
r67 67 73 0.0446983 
r68 67 68 14.7657 
r69 64 116 6 
r70 62 74 0.0446983 
r71 62 64 0.3 
r72 60 132 0.549677 
r73 60 61 0.00955498 
r74 58 61 0.0329896 
r75 58 59 0.5 
r76 55 59 0.9375 
r77 86 42 6 
r78 86 39 2.06571 
r79 39 122 6 
r80 36 35 0.0789583 
r81 35 42 1.63 
r82 31 38 0.029971 
r83 30 55 0.0450043 
r84 30 31 0.441081 
r85 25 38 0.0122637 
r86 25 26 0.9375 
r87 23 38 0.029971 
r88 23 24 0.441081 
r89 18 24 0.0450043 
r90 18 19 0.9375 
r91 36 14 0.60125 
.ends

.subckt PM_PC3D01%PAD 21 50 91 120 161 190 247 271 295 319 349 355 380 488 507
+ 514
c0 522 0 26.8791f
c1 515 0 84.0351f
c2 514 0 64.3341f
c3 511 0 159.215f
c4 506 0 1.02561f
c5 499 0 9.97339f
c6 494 0 12.958f
c7 485 0 0.118304f
c8 482 0 201.545f
c9 468 0 15.3329f
c10 450 0 3.86483f
c11 381 0 128.319f
c12 380 0 1.04909f
c13 355 0 13.2018f
c14 349 0 13.172f
c15 319 0 13.1699f
c16 295 0 13.1832f
c17 271 0 13.4186f
c18 247 0 13.1699f
c19 212 0 7.52869f
c20 190 0 2.9853f
c21 173 0 6.78371f
c22 161 0 2.98495f
c23 144 0 6.78371f
c24 120 0 2.9853f
c25 103 0 6.78371f
c26 91 0 2.9853f
c27 74 0 6.78371f
c28 50 0 2.98608f
c29 33 0 6.78371f
c30 21 0 2.9853f
c31 4 0 6.78371f
r32 522 523 0.118407 
r33 521 522 0.118407 
r34 520 521 0.056883 
r35 519 520 0.061524 
r36 518 519 0.118407 
r37 517 518 0.0830354 
r38 516 517 0.0353716 
r39 514 515 0.0124825 
r40 512 514 0.000593149 
r41 511 512 0.0669731 
r42 506 507 0.00916 
r43 499 517 0.0545455 
r44 494 520 0.015 
r45 485 488 0.00916 
r46 485 506 2 
r47 481 494 0.0264274 
r48 481 482 0.147774 
r49 475 476 0.00752787 
r50 474 475 0.021023 
r51 472 474 0.000537705 
r52 472 511 0.00162999 
r53 470 472 0.000537705 
r54 468 470 0.0285508 
r55 459 506 0.1388 
r56 458 459 0.132996 
r57 457 458 0.0171733 
r58 456 457 0.0171733 
r59 455 456 0.0171733 
r60 454 455 0.0171733 
r61 453 454 0.0171733 
r62 450 499 0.202116 
r63 482 383 0.0288462 
r64 381 453 0.00818451 
r65 381 383 0.00646891 
r66 450 380 0.0147368 
r67 344 349 0.0072093 
r68 453 344 0.0566038 
r69 342 355 0.0072093 
r70 458 342 0.0566038 
r71 315 319 0.0072093 
r72 457 315 0.0566038 
r73 291 295 0.0072093 
r74 456 291 0.0566038 
r75 267 271 0.0072093 
r76 455 267 0.0566038 
r77 243 247 0.0072093 
r78 454 243 0.0566038 
r79 223 226 0.0022831 
r80 476 223 0.0375475 
r81 223 512 0.00547945 
r82 474 222 0.00210084 
r83 220 222 0.000537705 
r84 470 220 0.00210084 
r85 222 218 0.0105115 
r86 475 218 0.00712251 
r87 214 226 0.0187738 
r88 218 214 0.00376393 
r89 476 214 0.00712251 
r90 212 220 0.0142754 
r91 468 212 0.00356125 
r92 515 197 0.345778 
r93 196 522 0.0220132 
r94 196 197 0.319822 
r95 190 177 0.00249413 
r96 197 177 0.0425532 
r97 173 190 0.00249413 
r98 197 173 0.0425532 
r99 515 168 0.345778 
r100 167 523 0.0220132 
r101 167 168 0.319822 
r102 161 148 0.00249413 
r103 168 148 0.0425532 
r104 144 161 0.00249413 
r105 168 144 0.0425532 
r106 515 127 0.345778 
r107 126 519 0.0220132 
r108 126 127 0.319822 
r109 120 107 0.00249413 
r110 127 107 0.0425532 
r111 103 120 0.00249413 
r112 127 103 0.0425532 
r113 515 98 0.345778 
r114 97 521 0.0220132 
r115 97 98 0.319822 
r116 91 78 0.00249413 
r117 98 78 0.0425532 
r118 74 91 0.00249413 
r119 98 74 0.0425532 
r120 515 57 0.345778 
r121 56 516 0.0220132 
r122 56 57 0.319822 
r123 50 37 0.00249413 
r124 57 37 0.0425532 
r125 33 50 0.00249413 
r126 57 33 0.0425532 
r127 515 28 0.345778 
r128 27 518 0.0220132 
r129 27 28 0.319822 
r130 21 8 0.00249413 
r131 28 8 0.0425532 
r132 4 21 0.00249413 
r133 28 4 0.0425532 
.ends

.subckt PM_PC3D01%U14_pgate_tol 18 37 68 87 118 137 168 187 298 300 302 304 359
+ 362 368 377 382 402 417 469
c0 687 0 0.414045f
c1 684 0 0.3136f
c2 682 0 0.314371f
c3 681 0 0.314371f
c4 679 0 0.314371f
c5 678 0 0.299846f
c6 676 0 0.314762f
c7 675 0 0.314371f
c8 673 0 0.314371f
c9 672 0 0.326634f
c10 669 0 7.10784f
c11 667 0 9.07899f
c12 657 0 0.173139f
c13 655 0 9.08258f
c14 652 0 0.0821611f
c15 646 0 0.405412f
c16 643 0 0.309607f
c17 641 0 0.309607f
c18 640 0 0.309607f
c19 638 0 0.309607f
c20 637 0 0.293407f
c21 635 0 0.309998f
c22 634 0 0.309607f
c23 632 0 0.309607f
c24 631 0 0.309862f
c25 628 0 7.23439f
c26 627 0 0.145878f
c27 622 0 6.12473f
c28 618 0 0.140364f
c29 614 0 0.762971f
c30 609 0 4.57705f
c31 607 0 0.461136f
c32 600 0 0.170111f
c33 581 0 7.82312f
c34 574 0 15.6783f
c35 572 0 0.607092f
c36 568 0 1.21417f
c37 564 0 1.04332f
c38 560 0 0.604489f
c39 544 0 6.45385f
c40 542 0 0.265963f
c41 541 0 0.082441f
c42 530 0 0.168417f
c43 529 0 0.0440559f
c44 476 0 0.497468f
c45 469 0 1.51625f
c46 456 0 0.244803f
c47 452 0 0.171903f
c48 443 0 0.324326f
c49 439 0 0.435699f
c50 436 0 0.274844f
c51 431 0 1.73359f
c52 428 0 0.0436999f
c53 427 0 1.17988f
c54 425 0 1.03279f
c55 423 0 0.168007f
c56 421 0 0.0580007f
c57 417 0 0.831216f
c58 402 0 1.3334f
c59 400 0 0.0159861f
c60 399 0 0.13581f
c61 393 0 0.199249f
c62 391 0 0.0527726f
c63 390 0 0.0764203f
c64 389 0 0.0434107f
c65 388 0 0.245907f
c66 387 0 0.463687f
c67 382 0 1.30573f
c68 377 0 1.28486f
c69 375 0 0.0495389f
c70 374 0 0.383876f
c71 373 0 0.0506144f
c72 372 0 0.216417f
c73 368 0 1.81632f
c74 366 0 0.0510536f
c75 365 0 0.309779f
c76 362 0 3.46619f
c77 359 0 1.7334f
c78 296 0 5.10156f
c79 287 0 4.81366f
c80 286 0 0.372561f
c81 281 0 5.08333f
c82 280 0 0.424184f
c83 268 0 0.370539f
c84 221 0 4.92851f
c85 219 0 0.107369f
c86 217 0 0.133228f
c87 172 0 4.91999f
c88 170 0 0.105999f
c89 153 0 4.92136f
c90 151 0 0.105999f
c91 122 0 4.92136f
c92 120 0 0.105999f
c93 103 0 4.92369f
c94 101 0 0.106492f
c95 72 0 4.88998f
c96 70 0 0.105999f
c97 53 0 4.91601f
c98 51 0 0.105999f
c99 22 0 4.92136f
c100 20 0 0.105999f
c101 3 0 4.92136f
c102 1 0 0.105999f
r103 684 685 0.32439 
r104 681 682 0.32839 
r105 678 679 0.32839 
r106 675 676 0.32839 
r107 672 673 0.32839 
r108 659 661 0.786667 
r109 655 657 6 
r110 654 655 13.1067 
r111 650 652 6 
r112 648 650 0.333333 
r113 643 644 0.323902 
r114 640 641 0.327902 
r115 637 638 0.327902 
r116 634 635 0.327902 
r117 631 632 0.327902 
r118 622 624 6 
r119 627 622 4.1129 
r120 618 657 6 
r121 616 627 0.082369 
r122 616 618 0.0538318 
r123 612 614 6 
r124 609 612 6.94919 
r125 609 652 6 
r126 607 624 0.0817218 
r127 605 614 1.13973 
r128 602 631 0.218537 
r129 628 602 0.158049 
r130 600 602 6 
r131 600 604 0.0447619 
r132 598 687 0.219512 
r133 685 598 0.16439 
r134 596 598 6 
r135 595 684 0.219512 
r136 682 595 0.16039 
r137 593 595 6 
r138 593 596 0.708293 
r139 592 681 0.219512 
r140 679 592 0.16039 
r141 590 592 6 
r142 590 593 0.708293 
r143 589 678 0.219512 
r144 676 589 0.16039 
r145 587 589 6 
r146 587 590 0.708293 
r147 586 675 0.219512 
r148 673 586 0.16039 
r149 584 586 6 
r150 584 587 0.708293 
r151 583 672 0.219512 
r152 669 583 0.16439 
r153 581 583 6 
r154 581 584 0.708293 
r155 580 607 0.044726 
r156 580 581 0.636585 
r157 577 667 6 
r158 661 574 0.544 
r159 572 574 6 
r160 572 577 0.334884 
r161 558 646 0.219512 
r162 644 558 0.164878 
r163 556 558 6 
r164 555 643 0.219512 
r165 641 555 0.160878 
r166 553 555 6 
r167 553 556 0.708293 
r168 552 640 0.219512 
r169 638 552 0.160878 
r170 550 552 6 
r171 550 553 0.708293 
r172 549 637 0.219512 
r173 635 549 0.160878 
r174 547 549 6 
r175 547 550 0.708293 
r176 546 634 0.218537 
r177 632 546 0.161854 
r178 544 546 6 
r179 544 547 0.707317 
r180 604 544 0.662439 
r181 600 542 0.0419048 
r182 541 605 0.0528445 
r183 541 542 0.16 
r184 534 535 1.18857 
r185 529 530 0.12 
r186 526 529 0.0451268 
r187 568 456 6 
r188 568 453 2.5675 
r189 453 654 6 
r190 564 452 6 
r191 564 449 2.26 
r192 449 661 6 
r193 448 654 0.64 
r194 650 448 0.165333 
r195 560 448 6 
r196 560 445 1.41429 
r197 445 476 6 
r198 443 539 1.70571 
r199 443 659 6 
r200 539 442 6 
r201 439 534 0.174286 
r202 439 648 6 
r203 438 667 1.45548 
r204 664 438 0.175484 
r205 534 438 6 
r206 535 436 6 
r207 469 434 2.3375 
r208 530 434 6 
r209 526 431 2.67 
r210 431 664 6 
r211 429 428 0.08 
r212 428 456 0.41 
r213 426 452 0.215 
r214 426 427 0.0302706 
r215 424 476 1.23714 
r216 423 442 0.133333 
r217 422 469 2.0425 
r218 421 436 0.354667 
r219 429 417 1.1475 
r220 401 402 2.0425 
r221 400 424 0.0447675 
r222 399 406 0.0447588 
r223 399 400 0.213333 
r224 393 425 0.0302706 
r225 392 393 0.5075 
r226 390 392 0.0447121 
r227 390 391 0.0993939 
r228 388 427 0.0119838 
r229 388 389 0.585714 
r230 387 391 0.0447113 
r231 386 423 0.0449258 
r232 386 387 1.15765 
r233 381 389 0.0449572 
r234 381 382 2.06 
r235 376 377 2.0925 
r236 375 422 0.0446983 
r237 374 401 0.0446983 
r238 374 375 0.51 
r239 372 425 0.0119838 
r240 372 373 0.585714 
r241 367 373 0.0449572 
r242 367 368 2.01 
r243 365 376 0.0446983 
r244 365 366 0.51 
r245 361 366 0.0446983 
r246 361 362 2.2275 
r247 360 421 0.0447588 
r248 360 362 3.765 
r249 406 359 2.44 
r250 296 304 394.95 
r251 687 295 2.81176 
r252 295 296 1.5 
r253 287 302 394.95 
r254 286 685 2.74706 
r255 286 287 1.5 
r256 281 298 394.95 
r257 280 669 2.85294 
r258 280 281 1.5 
r259 278 304 394.95 
r260 646 277 2.78235 
r261 277 278 1.5 
r262 269 302 394.95 
r263 268 644 2.74706 
r264 268 269 1.5 
r265 222 672 2.04706 
r266 221 300 394.95 
r267 221 222 4.2601 
r268 220 631 2.04706 
r269 219 300 394.95 
r270 219 220 4.2601 
r271 218 628 2.07059 
r272 217 298 394.95 
r273 217 218 4.2601 
r274 173 684 2.07647 
r275 172 187 394.95 
r276 172 173 4.2601 
r277 171 643 2.07647 
r278 170 187 394.95 
r279 170 171 4.2601 
r280 154 682 2.07647 
r281 153 168 394.95 
r282 153 154 4.2601 
r283 152 641 2.07647 
r284 151 168 394.95 
r285 151 152 4.2601 
r286 123 681 2.07647 
r287 122 137 394.95 
r288 122 123 4.2601 
r289 121 640 2.07647 
r290 120 137 394.95 
r291 120 121 4.2601 
r292 104 679 2.07647 
r293 103 118 394.95 
r294 103 104 4.2601 
r295 102 638 2.07647 
r296 101 118 394.95 
r297 101 102 4.2601 
r298 73 678 2.07647 
r299 72 87 394.95 
r300 72 73 4.2601 
r301 71 637 2.07647 
r302 70 87 394.95 
r303 70 71 4.2601 
r304 54 676 2.07647 
r305 53 68 394.95 
r306 53 54 4.2601 
r307 52 635 2.07647 
r308 51 68 394.95 
r309 51 52 4.2601 
r310 23 675 2.07647 
r311 22 37 394.95 
r312 22 23 4.2601 
r313 21 634 2.07647 
r314 20 37 394.95 
r315 20 21 4.2601 
r316 4 673 2.07647 
r317 3 18 394.95 
r318 3 4 4.2601 
r319 2 632 2.07647 
r320 1 18 394.95 
r321 1 2 4.2601 
.ends

.subckt PM_PC3D01%U9_MPI1_drain 52 57 112 114 116 118 121
c0 159 0 0.329601f
c1 157 0 0.129588f
c2 153 0 0.591062f
c3 149 0 17.7822f
c4 145 0 5.24508f
c5 138 0 0.109006f
c6 129 0 0.724591f
c7 121 0 0.694895f
c8 118 0 0.518181f
c9 116 0 0.53723f
c10 114 0 0.69017f
c11 112 0 0.605483f
c12 86 0 0.256349f
c13 85 0 0.428383f
c14 79 0 1.11605f
c15 77 0 0.0540129f
c16 74 0 0.119916f
c17 71 0 0.0673184f
c18 70 0 0.0260667f
c19 66 0 0.54323f
c20 64 0 0.0352652f
c21 63 0 0.0811133f
c22 62 0 0.058546f
c23 61 0 0.144902f
c24 57 0 1.74061f
c25 52 0 0.82442f
c26 11 0 0.0699777f
c27 10 0 0.084618f
c28 8 0 0.0737414f
c29 3 0 0.185285f
c30 2 0 0.0751729f
c31 1 0 0.123633f
r32 155 157 0.0948571 
r33 152 157 0.02 
r34 152 153 0.662295 
r35 148 155 0.02 
r36 148 149 0.22875 
r37 145 159 6 
r38 142 145 5.82182 
r39 141 159 0.334035 
r40 138 141 0.0524912 
r41 92 112 52.1667 
r42 138 86 0.136 
r43 153 85 6 
r44 149 80 2.73 
r45 80 129 6 
r46 142 79 6 
r47 76 85 0.430164 
r48 76 77 0.0399207 
r49 92 71 2.21073 
r50 71 74 0.0352381 
r51 69 79 2.3225 
r52 69 70 0.0338756 
r53 68 129 0.9325 
r54 68 70 0.0338756 
r55 66 77 0.0399207 
r56 65 74 0.02 
r57 65 66 0.802667 
r58 63 70 0.00880368 
r59 63 64 0.2025 
r60 61 77 0.0041202 
r61 61 62 0.283243 
r62 56 64 0.0446983 
r63 56 57 2.495 
r64 51 62 0.0450043 
r65 51 52 0.815 
r66 12 121 70.3333 
r67 10 86 6.58333 
r68 10 11 2.54067 
r69 9 118 70.3333 
r70 9 11 0.660276 
r71 7 86 5.08333 
r72 7 8 2.54067 
r73 6 116 70.3333 
r74 6 8 0.660276 
r75 5 114 70.3333 
r76 4 11 2.54067 
r77 3 12 3.35237 
r78 3 4 13.5 
r79 2 5 3.35237 
r80 1 8 2.54067 
r81 1 2 13.6667 
.ends

.subckt PM_PC3D01%VDDO 824 892 903 914 925 936 947 958 973 1191 1204 1206 1248
+ 1256 1510 1514 1517 1521 1529 1536 1543 1552 1562 1573 1579 1585 1626 1637 1640
+ 1645
c0 1645 0 20.319f
c1 1637 0 45.4557f
c2 1622 0 2.98997f
c3 1591 0 9.5721f
c4 1585 0 1.72199f
c5 1579 0 2.07811f
c6 1573 0 2.31703f
c7 1570 0 3.35178f
c8 1559 0 0.505082f
c9 1555 0 41.3212f
c10 1554 0 1.97484f
c11 1552 0 62.8661f
c12 1535 0 50.9389f
c13 1526 0 0.696813f
c14 1524 0 1.2453f
c15 1521 0 3.00652f
c16 1514 0 2.4994f
c17 1508 0 0.127329f
c18 1503 0 0.0724239f
c19 1501 0 1.09396f
c20 1494 0 0.330853f
c21 1490 0 0.14958f
c22 1484 0 0.230124f
c23 1476 0 0.332801f
c24 1472 0 0.194107f
c25 1467 0 1.45872f
c26 1465 0 0.988028f
c27 1463 0 0.0714314f
c28 1462 0 0.111846f
c29 1428 0 9.76182f
c30 1271 0 2.66842f
c31 1256 0 0.318703f
c32 1248 0 0.0819925f
c33 1227 0 0.119988f
c34 1222 0 0.39879f
c35 1221 0 0.117317f
c36 1219 0 0.133611f
c37 1217 0 7.775f
c38 1216 0 8.83226f
c39 1209 0 0.0962101f
c40 1206 0 0.336966f
c41 1204 0 0.670535f
c42 1198 0 0.0301061f
c43 1197 0 0.967804f
c44 1191 0 1.25778f
c45 1120 0 3.63084f
c46 1085 0 5.39118f
c47 1070 0 1.29937f
c48 1066 0 0.615713f
c49 1062 0 8.82846f
c50 1060 0 6.7868f
c51 1058 0 0.588747f
c52 1052 0 0.170971f
c53 1049 0 0.0533066f
c54 1047 0 0.0989764f
c55 973 0 7.73649f
c56 965 0 7.33964f
c57 962 0 11.7156f
c58 951 0 19.4869f
c59 940 0 19.4869f
c60 929 0 19.5155f
c61 918 0 19.4869f
c62 907 0 19.4869f
c63 896 0 11.8398f
c64 849 0 0.210878f
c65 812 0 0.0533066f
c66 801 0 0.12462f
c67 800 0 5.89132f
c68 797 0 0.104443f
c69 796 0 6.15996f
c70 17 0 0.486838f
c71 16 0 6.73322f
c72 7 0 0.152029f
c73 6 0 6.75738f
r74 1640 1643 0.00394881 
r75 1634 1635 0.415773 
r76 1633 1634 0.0124619 
r77 1632 1633 0.0351634 
r78 1631 1632 0.0234858 
r79 1630 1631 0.0699782 
r80 1624 1637 0.00304139 
r81 1635 1624 0.00174292 
r82 1622 1624 0.461538 
r83 1588 1634 0.545455 
r84 1585 1588 1.4825 
r85 1582 1633 0.545455 
r86 1579 1582 1.63 
r87 1576 1631 0.5 
r88 1573 1576 1.455 
r89 1572 1630 0.00174292 
r90 1626 1572 0.00305011 
r91 1570 1572 0.461538 
r92 1566 1645 0.0039415 
r93 1643 1566 0.467422 
r94 1564 1566 0.5 
r95 1562 1564 0.181 
r96 1559 1562 0.17 
r97 1559 1635 1.5 
r98 1556 1557 0.5433 
r99 1555 1556 0.2247 
r100 1554 1557 0.099 
r101 1550 1552 0.0136564 
r102 1549 1550 0.0314855 
r103 1548 1549 0.0601494 
r104 1547 1548 0.0634357 
r105 1546 1547 0.0334274 
r106 1543 1546 0.01361 
r107 1532 1643 0.5 
r108 1529 1532 0.181 
r109 1526 1529 0.17 
r110 1526 1630 1.5 
r111 1524 1555 0.5293 
r112 1506 1508 0.12 
r113 1496 1499 3 
r114 1591 1496 0.0677429 
r115 1494 1496 3 
r116 1591 1486 0.1116 
r117 1619 1486 0.0028 
r118 1484 1486 6 
r119 1469 1508 0.02 
r120 1466 1506 0.02 
r121 1466 1467 2.92286 
r122 1503 1464 0.0456991 
r123 1464 1465 2.06857 
r124 1462 1465 0.0446983 
r125 1462 1463 0.0971429 
r126 1460 1463 0.0446983 
r127 1460 1501 1.64571 
r128 1428 1619 0.2648 
r129 1427 1619 0.2664 
r130 1426 1619 0.2664 
r131 1264 1476 1 
r132 1254 1490 3 
r133 1251 1254 0.2885 
r134 1251 1472 2 
r135 1248 1251 2.755 
r136 1247 1248 1.8985 
r137 1246 1247 0.425 
r138 1484 1240 0.000149533 
r139 1524 1239 0.0555566 
r140 1239 1240 6 
r141 1238 1499 0.0444444 
r142 1494 1238 7.40741e-05 
r143 1524 1237 0.0279474 
r144 1237 1238 1.5 