* File: pc3b04.dist.sp.pex
* Created: Sun Jul  4 12:14:44 2010
* Program "Calibre xRC"
* Version "v2008.4_19.14"
* Nominal Temperature: 27C
* Circuit Temperature: 27C
* 
.subckt PM_PC3B04%net_m20_VSSO_res 25 100 104 108 112 116
c0 116 0 0.519409f
c1 112 0 0.519409f
c2 108 0 0.519409f
c3 104 0 0.733303f
c4 100 0 0.73297f
c5 97 0 0.458473f
c6 91 0 0.0621542f
c7 57 0 0.0631005f
c8 43 0 0.243065f
c9 42 0 0.24171f
c10 41 0 0.158208f
c11 40 0 0.17083f
c12 39 0 0.165042f
c13 25 0 0.371051f
c14 24 0 0.190505f
c15 23 0 0.0477817f
c16 22 0 0.371384f
r17 92 97 0.0552941 
r18 91 92 0.02 
r19 90 91 0.129412 
r20 58 100 85 
r21 56 116 85 
r22 56 57 0.93595 
r23 51 112 85 
r24 50 51 1.55172 
r25 49 97 6.90667 
r26 48 50 5.17241 
r27 48 49 1.55172 
r28 47 108 85 
r29 46 48 11.1034 
r30 46 47 1.55172 
r31 45 104 85 
r32 44 57 2.23066 
r33 43 58 3.37824 
r34 43 44 10.8571 
r35 42 50 2.89655 
r36 41 57 2.23066 
r37 41 42 10.8571 
r38 40 45 3.37824 
r39 39 46 2.89655 
r40 39 40 10.8571 
r41 24 25 0.18 
r42 90 23 0.0446983 
r43 22 24 0.0446983 
r44 22 23 0.521176 
.ends

.subckt PM_PC3B04%VSS 660 827 863 885 909 914 927 929 934
c0 934 0 92.2148f
c1 927 0 55.3788f
c2 912 0 2.37329f
c3 909 0 0.00368951f
c4 906 0 1.24098f
c5 893 0 1.21678f
c6 881 0 1.88726f
c7 874 0 15.4251f
c8 860 0 1.45971f
c9 840 0 25.3075f
c10 838 0 0.0842555f
c11 837 0 0.0657505f
c12 836 0 7.75933f
c13 834 0 0.269279f
c14 831 0 0.0372194f
c15 827 0 4.20605f
c16 824 0 0.198007f
c17 822 0 0.849344f
c18 819 0 10.3525f
c19 812 0 8.71613f
c20 809 0 0.253612f
c21 808 0 0.100669f
c22 807 0 1.98808f
c23 701 0 2.24074f
c24 697 0 2.48218f
c25 692 0 1.88729f
c26 690 0 0.228409f
c27 688 0 0.276497f
c28 685 0 26.6169f
c29 680 0 0.814991f
c30 679 0 6.34069f
c31 673 0 2.0393f
c32 667 0 0.137389f
c33 666 0 2.49303f
c34 665 0 0.154374f
c35 664 0 2.26456f
c36 660 0 0.00279637f
c37 573 0 0.162892f
c38 571 0 0.72248f
c39 569 0 0.203897f
c40 544 0 2.94312f
c41 530 0 3.05957f
c42 528 0 0.031054f
c43 525 0 0.729043f
c44 524 0 7.74042f
c45 523 0 0.203811f
c46 508 0 5.70482f
c47 505 0 3.25515f
r48 929 932 0.000703354 
r49 925 927 0.00318245 
r50 924 925 0.00119641 
r51 923 924 0.0758524 
r52 922 923 0.0344168 
r53 921 922 0.167059 
r54 920 921 0.0871386 
r55 919 920 0.0414357 
r56 918 919 0.0141176 
r57 917 918 0.089651 
r58 914 917 0.00438684 
r59 912 925 0.461538 
r60 906 909 1.28857 
r61 906 923 1.5 
r62 900 921 0.0535714 
r63 898 919 1.5 
r64 898 900 1.612 
r65 893 896 0.045 
r66 893 920 0.666667 
r67 888 924 0.428571 
r68 885 888 0.189 
r69 883 934 0.000702051 
r70 932 883 0.0832563 
r71 881 883 0.131579 
r72 881 885 0.013 
r73 878 879 0.56934 
r74 877 878 1.12447 
r75 874 877 0.628223 
r76 874 922 0.3 
r77 866 917 0.428571 
r78 863 866 0.189 
r79 860 863 0.013 
r80 860 932 0.131579 
r81 839 854 0.02 
r82 839 840 0.9662 
r83 836 900 2.8715 
r84 836 837 0.0338756 
r85 840 833 1 
r86 833 834 0.0155975 
r87 831 898 1.283 
r88 830 838 0.0338756 
r89 829 837 0.0338756 
r90 827 904 2.59036 
r91 902 827 1.07807 
r92 826 838 0.00880368 
r93 826 827 0.958 
r94 825 837 0.00880368 
r95 825 827 0.986 
r96 834 824 0.0632911 
r97 824 822 0.0574488 
r98 819 838 0.0338756 
r99 818 831 0.0448201 
r100 815 912 1.518 
r101 814 912 0.426 
r102 812 904 1.08482 
r103 809 902 1.06072 
r104 808 827 3.1035 
r105 807 808 0.0448201 
r106 807 818 2.13041 
r107 819 703 0.733 
r108 827 703 1.93 
r109 701 842 3 
r110 902 697 1 
r111 842 692 0.24 
r112 878 692 1.5 
r113 703 690 3 
r114 877 690 3 
r115 688 904 3 
r116 879 688 3 
r117 685 871 1.1314 
r118 685 918 0.125 
r119 684 697 0.0075 
r120 854 684 0.056 
r121 871 684 0.24 
r122 680 830 0.5005 
r123 815 680 0.0446983 
r124 679 829 0.5005 
r125 814 679 0.0446983 
r126 678 701 0.830244 
r127 677 701 0.573659 
r128 672 673 1.37048 
r129 667 678 0.0448242 
r130 667 668 0.678222 
r131 666 673 0.0447675 
r132 666 668 0.650667 
r133 665 677 0.0446983 
r134 664 672 0.0447067 
r135 664 665 1.45854 
r136 896 660 0.31875 
r137 572 573 0.147619 
r138 568 569 0.14988 
r139 812 568 0.0380723 
r140 565 567 0.143333 
r141 809 564 0.0385542 
r142 562 564 0.14506 
r143 827 561 0.159 
r144 544 827 0.159 
r145 543 573 0.02 
r146 543 561 1.247 
r147 542 569 0.02 
r148 542 544 1.243 
r149 827 541 0.192 
r150 539 827 0.192 
r151 538 539 0.342 
r152 827 538 0.192 
r153 536 827 0.192 
r154 535 536 0.342 
r155 827 535 0.192 
r156 533 827 0.192 
r157 532 533 0.342 
r158 827 532 0.192 
r159 530 827 0.192 
r160 529 572 0.02 
r161 529 541 1.214 
r162 528 571 0.04 
r163 528 530 0.243 
r164 526 568 0.02 
r165 526 571 0.938734 
r166 833 525 0.102486 
r167 524 572 0.0380952 
r168 524 525 4.80524 
r169 523 822 0.555238 
r170 523 567 0.0380952 
r171 827 519 0.159 
r172 517 827 0.159 
r173 516 517 0.408 
r174 827 516 0.159 
r175 514 827 0.159 
r176 513 514 0.408 
r177 827 513 0.159 
r178 511 827 0.159 
r179 510 511 0.408 
r180 827 510 0.159 
r181 508 827 0.159 
r182 507 567 0.02 
r183 507 519 1.247 
r184 506 564 0.02 
r185 506 508 1.243 
r186 505 565 0.02 
r187 504 562 0.02 
r188 504 505 4.69271 
.ends

.subckt PM_PC3B04%U28_U42_r1 93 98 140 145 152
c0 234 0 0.100654f
c1 232 0 0.442963f
c2 227 0 0.442911f
c3 222 0 0.346018f
c4 218 0 2.82383f
c5 213 0 0.149522f
c6 210 0 0.259978f
c7 209 0 0.481f
c8 207 0 0.243246f
c9 205 0 0.0831055f
c10 204 0 0.334018f
c11 201 0 6.43541f
c12 198 0 0.770282f
c13 194 0 1.49913f
c14 193 0 0.76349f
c15 186 0 3.2943f
c16 185 0 0.0777466f
c17 184 0 10.3327f
c18 182 0 0.472173f
c19 180 0 0.408756f
c20 177 0 0.140416f
c21 172 0 0.0742904f
c22 169 0 0.0630044f
c23 161 0 0.171215f
c24 153 0 0.534923f
c25 152 0 0.278026f
c26 148 0 0.607921f
c27 147 0 0.168259f
c28 145 0 3.04886f
c29 140 0 3.04886f
c30 108 0 0.971459f
c31 98 0 3.04886f
c32 97 0 0.167986f
c33 93 0 3.04886f
c34 92 0 0.16844f
r35 211 213 0.1472 
r36 209 213 0.02 
r37 208 209 0.747936 
r38 206 211 0.02 
r39 206 207 0.405333 
r40 204 207 0.0446983 
r41 204 205 0.314667 
r42 201 234 6 
r43 199 205 0.0446983 
r44 199 201 7.00667 
r45 197 232 0.000487805 
r46 229 197 0.055122 
r47 196 198 0.0668954 
r48 196 197 1.5 
r49 195 210 0.105278 
r50 194 198 0.0829785 
r51 194 195 1.43 
r52 193 210 0.0228035 
r53 192 227 0.00292683 
r54 224 192 0.0526829 
r55 191 193 0.0677143 
r56 191 192 1.5 
r57 188 222 3 
r58 186 210 0.105278 
r59 186 188 3.4 
r60 184 208 0.0482946 
r61 184 185 8.83231 
r62 180 182 6 
r63 179 185 0.0501405 
r64 179 180 0.594286 
r65 175 234 0.0490323 
r66 174 177 0.157419 
r67 174 175 0.02 
r68 173 182 0.577143 
r69 172 222 0.261 
r70 172 173 0.0465329 
r71 169 218 6 
r72 167 177 0.02 
r73 167 169 0.0490323 
r74 166 218 3.99613 
r75 165 166 0.026898 
r76 161 165 0.10143 
r77 161 152 0.106667 
r78 148 153 5.05882 
r79 147 153 5.05882 
r80 142 148 3.88985 
r81 142 145 183.96 
r82 137 147 3.88985 
r83 137 140 183.96 
r84 103 108 5.05882 
r85 102 108 5.05882 
r86 97 103 3.88985 
r87 97 98 183.96 
r88 92 102 3.88985 
r89 92 93 183.96 
r90 153 63 0.00142683 
r91 227 63 3 
r92 108 52 0.00133393 
r93 229 52 3 
r94 34 108 0.0278113 
r95 232 34 3 
r96 153 9 0.0277856 
r97 224 9 3 
.ends

.subckt PM_PC3B04%VSSO 169 332 495 600 625 627 663 944 948 955 984 991 1003
+ 1014 1016 1021 1026 1032 1038 1044 1050 1059 1065 1071 1077 1083 1092 1098 1104
+ 1110 1122 1177 1183 1187 1193
c0 1193 0 31.9393f
c1 1180 0 1.98471f
c2 1177 0 46.5598f
c3 1157 0 7.95245f
c4 1155 0 6.97302f
c5 1149 0 6.97097f
c6 1144 0 6.97244f
c7 1138 0 6.97339f
c8 1133 0 6.97548f
c9 1122 0 7.53279e-19
c10 1117 0 8.95235f
c11 1110 0 0.342408f
c12 1104 0 1.36597f
c13 1098 0 1.40025f
c14 1083 0 1.35721f
c15 1077 0 1.35624f
c16 1071 0 1.34294f
c17 1065 0 1.38443f
c18 1050 0 1.20335f
c19 1044 0 0.840215f
c20 1038 0 1.37894f
c21 1032 0 2.02532f
c22 1026 0 1.55603f
c23 1021 0 1.69028f
c24 1019 0 2.28529f
c25 1014 0 8.25608e-19
c26 1012 0 8.96457f
c27 1001 0 7.90572f
c28 997 0 1.27875f
c29 987 0 1.65699f
c30 984 0 58.4727f
c31 951 0 1.3481f
c32 948 0 10.6731f
c33 936 0 0.112241f
c34 935 0 0.0408562f
c35 934 0 1.549f
c36 932 0 0.0510217f
c37 931 0 0.330224f
c38 930 0 0.675001f
c39 925 0 5.49071f
c40 916 0 0.708327f
c41 914 0 3.26143f
c42 912 0 0.383003f
c43 911 0 0.713156f
c44 910 0 0.311353f
c45 909 0 3.26731f
c46 908 0 0.383249f
c47 907 0 0.0465497f
c48 906 0 0.185024f
c49 905 0 0.322367f
c50 875 0 0.122915f
c51 874 0 9.05999f
c52 844 0 0.284424f
c53 840 0 7.03694f
c54 836 0 0.146306f
c55 663 0 0.431422f
c56 647 0 0.906122f
c57 645 0 0.101596f
c58 643 0 0.228551f
c59 641 0 1.41478f
c60 640 0 0.0319195f
c61 639 0 0.346471f
c62 627 0 0.784212f
c63 626 0 0.108804f
c64 625 0 0.346872f
c65 624 0 0.193042f
c66 621 0 0.0481914f
c67 620 0 0.472169f
c68 600 0 0.114597f
c69 593 0 0.121666f
c70 508 0 6.69176f
c71 410 0 14.0342f
c72 360 0 14.0375f
c73 247 0 14.0375f
c74 197 0 14.036f
c75 34 0 14.0394f
c76 10 0 0.146306f
r77 1191 1193 0.00282778 
r78 1190 1191 0.355444 
r79 1187 1190 0.00283333 
r80 1182 1184 0.0106667 
r81 1182 1183 0.02 
r82 1180 1182 0.0143333 
r83 1174 1175 0.166203 
r84 1173 1174 0.0396791 
r85 1172 1173 0.043262 
r86 1171 1172 0.0347594 
r87 1170 1171 0.0225668 
r88 1169 1170 0.067861 
r89 1168 1169 0.0253476 
r90 1167 1168 0.0224599 
r91 1166 1167 0.0475936 
r92 1165 1166 0.0226738 
r93 1164 1165 0.0233155 
r94 1163 1164 0.0203209 
r95 1162 1163 0.0213904 
r96 1161 1180 0.02 
r97 1161 1162 0.0720856 
r98 1126 1127 0.0140639 
r99 1121 1122 0.0126606 
r100 1157 1119 0.0113761 
r101 1117 1119 0.0638298 
r102 1114 1175 2 
r103 1110 1114 0.000380952 
r104 1107 1174 0.6 
r105 1104 1107 0.285 
r106 1101 1173 0.6 
r107 1098 1101 0.32 
r108 1086 1172 0.6 
r109 1083 1086 0.36 
r110 1080 1171 0.6 
r111 1077 1080 0.37 
r112 1074 1169 0.6 
r113 1071 1074 0.3225 
r114 1068 1168 0.6 
r115 1065 1068 0.325 
r116 1053 1167 0.6 
r117 1050 1053 0.3425 
r118 1047 1166 0.75 
r119 1044 1047 0.04 
r120 1041 1165 0.6 
r121 1038 1041 0.365 
r122 1035 1164 0.6 
r123 1032 1035 0.194286 
r124 1029 1163 0.6 
r125 1026 1029 0.3175 
r126 1023 1162 0.666667 
r127 1021 1023 0.96 
r128 1014 1121 0.013211 
r129 1117 1014 0.000917431 
r130 1012 1014 0.000913242 
r131 1012 1126 0.0638298 
r132 1002 1003 0.02 
r133 1001 1126 0.0113242 
r134 999 1001 0.0327869 
r135 999 1002 0.0166784 
r136 997 999 0.029258 
r137 994 1191 0.357143 
r138 991 994 0.21 
r139 989 1177 0.00544385 
r140 1175 989 0.0345455 
r141 987 989 1 
r142 987 991 0.445 
r143 982 984 0.00612761 
r144 982 1157 0.0327869 
r145 1151 980 0.00301483 
r146 980 1155 0.00301741 
r147 978 980 0.0266667 
r148 978 982 0.0287785 
r149 1092 977 0.130435 
r150 977 1149 0.00301741 
r151 1146 977 0.00301741 
r152 975 977 0.0266667 
r153 975 978 0.0242129 
r154 1140 974 0.00301483 
r155 974 1144 0.00301741 
r156 972 974 0.0266667 
r157 972 975 0.0242129 
r158 971 972 0.000615582 
r159 1059 970 0.130435 
r160 970 1138 0.00301741 
r161 1135 970 0.00301741 
r162 968 970 0.0266667 
r163 968 971 0.0235973 
r164 1129 967 0.00301483 
r165 967 1133 0.00301741 
r166 965 967 0.0266667 
r167 965 968 0.0242129 
r168 964 997 0.02 
r169 964 965 0.0277012 
r170 1002 961 0.429445 
r171 958 1190 0.357143 
r172 955 958 0.21 
r173 953 1186 0.144409 
r174 1184 953 0.034 
r175 951 953 1 
r176 951 955 0.445 
r177 935 936 0.1275 
r178 934 935 0.0448391 
r179 933 934 2.75862 
r180 931 933 0.044715 
r181 931 932 0.466667 
r182 930 932 0.0450432 
r183 1186 930 1.29371 
r184 923 925 6.4 
r185 923 1019 6 
r186 920 923 0.784211 
r187 918 1122 0.230275 
r188 916 1117 0.210275 
r189 915 1019 3.40429 
r190 913 1016 0.229041 
r191 913 914 0.0863581 
r192 911 1012 0.209132 
r193 911 912 0.0863581 
r194 918 909 0.0861375 
r195 909 910 0.132033 
r196 916 908 0.0861375 
r197 906 915 0.0446983 
r198 906 907 0.311429 
r199 905 907 0.0449572 
r200 875 1014 0.128 
r201 874 910 0.0473573 
r202 874 1014 0.126 
r203 844 875 0.0473573 
r204 914 844 0.132033 
r205 840 1014 0.126 
r206 839 1021 1.1475 
r207 837 1014 0.128 
r208 836 837 0.0473573 
r209 836 912 0.250407 
r210 925 649 6 
r211 1170 647 0.75 
r212 936 645 3 
r213 663 643 0.0610526 
r214 920 643 2 
r215 640 647 0.437895 
r216 640 641 0.0407126 
r217 839 639 0.0338756 
r218 626 649 0.0413535 
r219 626 627 1.14783 
r220 624 625 0.221176 
r221 620 624 0.0446983 
r222 620 621 0.668235 
r223 618 621 0.0446983 
r224 618 641 2.01647 
r225 599 639 0.00880368 
r226 599 600 0.1375 
r227 593 905 0.565 
r228 593 645 0.0265396 
r229 511 948 0.0419737 
r230 944 511 0.0413851 
r231 971 511 0.00128205 
r232 961 508 2.21804 
r233 508 1184 0.6 
r234 980 495 0.130435 
r235 1092 410 0.00313778 
r236 1149 410 0.0652174 
r237 495 400 0.0031351 
r238 1151 400 0.0652174 
r239 360 495 0.00314046 
r240 1155 360 0.0652174 
r241 1119 349 0.0141284 
r242 349 1121 0.0652174 
r243 974 332 0.130435 
r244 1059 247 0.00313778 
r245 1138 247 0.0652174 
r246 332 237 0.0031351 
r247 1140 237 0.0652174 
r248 197 332 0.00314046 
r249 1144 197 0.0652174 
r250 187 1092 0.00313778 
r251 1146 187 0.0652174 
r252 967 169 0.130435 
r253 84 1016 0.0126027 
r254 1014 84 0.0131507 
r255 1127 84 0.0652174 
r256 169 74 0.0031351 
r257 1129 74 0.0652174 
r258 34 169 0.00314046 
r259 1133 34 0.0652174 
r260 24 1059 0.00313778 
r261 1135 24 0.0652174 
r262 10 908 0.250407 
r263 10 840 0.0473573 
.ends

.subckt PM_PC3B04%U28_U72_pgate 22 41 72 91 122 141 209 211 238 249 285 291 296
c0 423 0 0.414046f
c1 420 0 0.306758f
c2 418 0 0.307529f
c3 417 0 0.307529f
c4 415 0 0.307529f
c5 414 0 0.28749f
c6 411 0 4.75712f
c7 409 0 0.219869f
c8 407 0 0.151607f
c9 405 0 16.0719f
c10 383 0 0.102306f
c11 379 0 5.91043f
c12 377 0 2.03853f
c13 373 0 3.88107f
c14 370 0 0.0347659f
c15 365 0 0.831484f
c16 355 0 3.00169f
c17 353 0 0.0612176f
c18 352 0 0.0386035f
c19 344 0 0.730208f
c20 331 0 4.60136f
c21 328 0 0.146501f
c22 327 0 0.0572348f
c23 322 0 0.0938002f
c24 318 0 0.0242189f
c25 317 0 0.0476892f
c26 315 0 0.0779827f
c27 312 0 2.25131f
c28 310 0 0.0625515f
c29 309 0 0.375759f
c30 303 0 0.0591576f
c31 300 0 0.355921f
c32 296 0 1.50598f
c33 291 0 0.972253f
c34 289 0 0.0470945f
c35 288 0 0.417152f
c36 287 0 0.159601f
c37 285 0 1.51206f
c38 249 0 2.52503f
c39 243 0 1.79327f
c40 238 0 2.26197f
c41 236 0 0.0535543f
c42 235 0 0.400586f
c43 207 0 5.1026f
c44 198 0 4.80867f
c45 197 0 0.371977f
c46 191 0 0.405378f
c47 185 0 0.370539f
c48 135 0 0.309607f
c49 126 0 4.91819f
c50 124 0 0.105999f
c51 116 0 0.309607f
c52 107 0 4.91956f
c53 105 0 0.105999f
c54 85 0 0.309607f
c55 76 0 4.91956f
c56 74 0 0.105999f
c57 66 0 0.309607f
c58 57 0 4.92186f
c59 55 0 0.106492f
c60 35 0 0.293407f
c61 26 0 4.89123f
c62 24 0 0.105999f
c63 16 0 4.85906f
c64 7 0 4.97095f
c65 5 0 0.112859f
r66 420 421 0.32439 
r67 417 418 0.32839 
r68 414 415 0.32839 
r69 405 407 6 
r70 381 383 0.0341463 
r71 377 379 6 
r72 376 383 0.02 
r73 376 377 3.54667 
r74 373 407 6 
r75 371 381 0.02 
r76 371 373 5.05333 
r77 369 379 10.4077 
r78 368 423 0.219512 
r79 421 368 0.16439 
r80 366 368 6 
r81 365 370 0.0142174 
r82 365 366 0.21561 
r83 364 420 0.219512 
r84 418 364 0.16039 
r85 362 364 6 
r86 361 417 0.219512 
r87 415 361 0.16039 
r88 359 361 6 
r89 359 362 0.708293 
r90 357 414 0.219512 
r91 411 357 0.16039 
r92 355 357 6 
r93 355 359 0.708293 
r94 354 370 0.0142174 
r95 354 362 0.462439 
r96 353 369 0.0446983 
r97 352 370 0.0327344 
r98 352 353 0.149677 
r99 349 409 6 
r100 346 405 3.37032 
r101 402 346 11.4052 
r102 344 346 6 
r103 344 349 1.15143 
r104 341 399 6 
r105 338 341 0.708293 
r106 338 396 6 
r107 335 338 0.708293 
r108 335 393 6 
r109 331 335 0.708293 
r110 331 390 6 
r111 327 328 0.12 
r112 324 327 0.0451268 
r113 320 409 0.211429 
r114 319 322 0.0785714 
r115 319 320 0.02 
r116 311 322 0.02 
r117 311 312 3.31571 
r118 309 312 0.0461631 
r119 309 310 0.30026 
r120 304 318 0.0327921 
r121 303 318 0.0327921 
r122 302 310 0.0449793 
r123 302 303 0.0943284 
r124 301 317 0.0343218 
r125 300 318 0.00972501 
r126 300 301 0.514286 
r127 295 317 0.00843222 
r128 295 296 1.59625 
r129 290 315 0.0200702 
r130 290 291 1.20375 
r131 288 317 0.0343218 
r132 288 289 0.614603 
r133 287 315 0.0982456 
r134 286 289 0.0452323 
r135 286 287 0.395385 
r136 304 285 1.59625 
r137 249 246 2.3375 
r138 328 246 6 
r139 324 243 2.67 
r140 243 402 6 
r141 242 249 2.0425 
r142 237 238 2.0425 
r143 236 242 0.0446983 
r144 235 237 0.0446983 
r145 235 236 0.51 
r146 207 211 394.95 
r147 423 206 2.81176 
r148 206 207 1.5 
r149 198 209 394.95 
r150 197 421 2.74706 
r151 197 198 1.5 
r152 195 211 394.95 
r153 194 195 1.5 
r154 399 191 0.219512 
r155 191 194 2.78235 
r156 188 399 0.164878 
r157 186 209 394.95 
r158 185 188 2.74706 
r159 185 186 1.5 
r160 135 188 0.323902 
r161 396 135 0.219512 
r162 127 420 2.07647 
r163 126 141 394.95 
r164 126 127 4.2601 
r165 125 135 2.07647 
r166 124 141 394.95 
r167 124 125 4.2601 
r168 116 396 0.160878 
r169 108 418 2.07647 
r170 107 122 394.95 
r171 107 108 4.2601 
r172 106 116 2.07647 
r173 105 122 394.95 
r174 105 106 4.2601 
r175 85 116 0.327902 
r176 393 85 0.219512 
r177 77 417 2.07647 
r178 76 91 394.95 
r179 76 77 4.2601 
r180 75 85 2.07647 
r181 74 91 394.95 
r182 74 75 4.2601 
r183 66 393 0.160878 
r184 58 415 2.07647 
r185 57 72 394.95 
r186 57 58 4.2601 
r187 56 66 2.07647 
r188 55 72 394.95 
r189 55 56 4.2601 
r190 35 66 0.327902 
r191 390 35 0.219512 
r192 27 414 2.07647 
r193 26 41 394.95 
r194 26 27 4.2601 
r195 25 35 2.07647 
r196 24 41 394.95 
r197 24 25 4.2601 
r198 16 390 0.160878 
r199 8 411 2.07647 
r200 7 22 394.95 
r201 7 8 4.2601 
r202 6 16 2.07647 
r203 5 22 394.95 
r204 5 6 4.2601 
.ends

.subckt PM_PC3B04%U15_pgate 31 38 43 50 57 68 73 113 118 141 187 193
c0 208 0 2.84706f
c1 197 0 1.22653f
c2 193 0 0.00447021f
c3 187 0 0.00533422f
c4 176 0 15.9518f
c5 174 0 0.992437f
c6 171 0 0.815326f
c7 169 0 1.50185f
c8 165 0 1.49831f
c9 158 0 0.0544354f
c10 157 0 0.281237f
c11 151 0 0.994811f
c12 146 0 1.96268f
c13 143 0 0.0660591f
c14 142 0 0.202283f
c15 141 0 0.00280858f
c16 118 0 0.0118835f
c17 113 0 0.0122797f
c18 99 0 2.79563f
c19 96 0 1.17019f
c20 94 0 0.712525f
c21 93 0 2.54614f
c22 89 0 0.302477f
c23 85 0 0.028277f
c24 83 0 0.028277f
c25 81 0 0.0289103f
c26 80 0 0.232817f
c27 79 0 0.028277f
c28 78 0 0.0303624f
c29 73 0 1.46953f
c30 68 0 1.39196f
c31 65 0 0.344617f
c32 63 0 0.102424f
c33 61 0 0.45127f
c34 57 0 1.49748f
c35 54 0 0.287058f
c36 50 0 2.86743f
c37 48 0 0.0466546f
c38 47 0 0.286924f
c39 43 0 2.73599f
c40 38 0 2.21962f
c41 36 0 0.0505388f
c42 35 0 0.327211f
c43 31 0 2.20081f
r44 204 205 0.336 
r45 202 204 6.29067 
r46 179 208 6 
r47 205 176 4.24 
r48 174 176 6 
r49 174 179 1.65857 
r50 171 197 6 
r51 169 193 1.43125 
r52 167 169 6 
r53 167 171 0.518356 
r54 165 187 1.4325 
r55 163 165 6 
r56 163 167 0.516164 
r57 157 159 0.0446983 
r58 157 158 0.2925 
r59 150 158 0.0446983 
r60 150 151 1.63125 
r61 145 208 3.82571 
r62 144 197 0.15875 
r63 143 144 0.0448998 
r64 142 145 0.0456127 
r65 142 143 0.183333 
r66 197 141 1.4375 
r67 99 118 4.4175 
r68 161 99 6 
r69 96 161 1.405 
r70 159 96 0.58875 
r71 96 205 6 
r72 94 155 1.395 
r73 94 204 6 
r74 93 113 4.545 
r75 155 93 6 
r76 151 91 6 
r77 146 89 6 
r78 146 86 2.26 
r79 86 202 6 
r80 84 118 1.3875 
r81 84 85 0.00880368 
r82 82 113 1.27 
r83 82 83 0.00880368 
r84 80 91 0.116143 
r85 80 81 0.0327397 
r86 77 89 0.215 
r87 77 78 0.0302706 
r88 72 73 1.3875 
r89 67 68 1.3625 
r90 66 85 0.0338756 
r91 65 72 0.0446983 
r92 65 66 0.51 
r93 64 83 0.0338756 
r94 63 85 0.0338756 
r95 63 64 0.2325 
r96 62 81 0.00977027 
r97 61 67 0.0448998 
r98 61 62 0.428889 
r99 56 81 0.0327397 
r100 56 57 1.3625 
r101 55 79 0.0338756 
r102 54 83 0.0338756 
r103 54 55 0.51 
r104 49 79 0.00880368 
r105 49 50 2.485 
r106 47 79 0.0338756 
r107 47 48 0.51 
r108 42 48 0.0446983 
r109 42 43 2.485 
r110 37 78 0.0302706 
r111 37 38 2.06 
r112 35 78 0.0119838 
r113 35 36 0.585714 
r114 30 36 0.0449572 
r115 30 31 2.06 
.ends

.subckt PM_PC3B04%U15_ngate 68 73 130 137 144 151 159 167 203 205 250
c0 314 0 0.482408f
c1 309 0 0.323616f
c2 302 0 16.5458f
c3 293 0 0.319372f
c4 288 0 0.724936f
c5 287 0 0.154073f
c6 285 0 1.2109f
c7 284 0 0.375794f
c8 281 0 0.0917297f
c9 280 0 0.0837332f
c10 278 0 0.229383f
c11 276 0 7.56617f
c12 273 0 0.103355f
c13 259 0 2.97174f
c14 251 0 0.563469f
c15 250 0 3.10575f
c16 213 0 0.431321f
c17 205 0 0.595958f
c18 203 0 0.831137f
c19 200 0 0.149707f
c20 197 0 0.145613f
c21 188 0 0.137813f
c22 185 0 1.34007f
c23 184 0 0.136808f
c24 181 0 0.813614f
c25 176 0 3.1356f
c26 174 0 0.0428228f
c27 173 0 0.0461791f
c28 172 0 0.0261329f
c29 171 0 0.0261329f
c30 167 0 0.991792f
c31 164 0 0.124484f
c32 163 0 1.65362f
c33 159 0 1.70497f
c34 156 0 0.0767532f
c35 155 0 0.252995f
c36 151 0 1.35208f
c37 148 0 0.357535f
c38 144 0 1.42004f
c39 141 0 0.248984f
c40 137 0 1.459f
c41 135 0 0.0503272f
c42 134 0 0.28959f
c43 130 0 1.43018f
c44 83 0 0.974547f
c45 73 0 3.04886f
c46 72 0 0.169513f
c47 68 0 3.04886f
c48 67 0 0.168886f
r49 301 302 0.397333 
r50 300 301 5.544 
r51 297 300 1.92533 
r52 290 314 0.00536585 
r53 311 290 0.0502439 
r54 288 290 1.5 
r55 286 287 0.0809659 
r56 288 285 0.114359 
r57 285 286 1.435 
r58 284 287 0.0160675 
r59 282 284 0.0558381 
r60 282 309 3 
r61 280 287 0.0809659 
r62 280 281 0.089 
r63 297 278 6 
r64 276 278 6 
r65 275 281 0.0446983 
r66 275 276 6.712 
r67 271 273 0.0755556 
r68 264 271 0.02 
r69 293 256 0.00142683 
r70 251 293 1.85294 
r71 246 251 3.88985 
r72 246 250 183.96 
r73 200 205 60 
r74 200 220 3.77986 
r75 197 203 85 
r76 197 213 3.53757 
r77 188 226 0.0370021 
r78 273 188 6 
r79 185 269 2.59143 
r80 185 302 6 
r81 269 184 6 
r82 264 181 1.53143 
r83 181 301 6 
r84 213 180 0.3325 
r85 259 180 6 
r86 177 262 2.2825 
r87 259 177 1.32 
r88 177 300 6 
r89 176 220 3.7825 
r90 262 176 6 
r91 173 184 0.0613333 
r92 166 167 1.2375 
r93 165 174 0.0310989 
r94 164 166 0.044713 
r95 164 165 0.152258 
r96 163 174 0.0112231 
r97 162 173 0.0447675 
r98 162 163 3.52 
r99 226 159 1.6275 
r100 157 159 1.28 
r101 155 174 0.0310989 
r102 155 156 0.301935 
r103 150 156 0.044713 
r104 150 151 1.2375 
r105 149 172 0.0338756 
r106 148 157 0.0446983 
r107 148 149 0.51 
r108 143 172 0.00880368 
r109 143 144 1.28 
r110 142 171 0.0338756 
r111 141 172 0.0338756 
r112 141 142 0.43 
r113 136 171 0.00880368 
r114 136 137 1.415 
r115 134 171 0.0338756 
r116 134 135 0.51 
r117 129 135 0.0446983 
r118 129 130 1.415 
r119 78 83 5.05882 
r120 77 83 5.05882 
r121 72 78 3.88985 
r122 72 73 183.96 
r123 67 77 3.88985 
r124 67 68 183.96 
r125 37 309 0.0521951 
r126 37 256 3 
r127 83 27 0.00133393 
r128 311 27 3 
r129 9 83 0.0278113 
r130 314 9 3 
.ends

.subckt PM_PC3B04%U28_ngate3 65 73 96 102
c0 135 0 14.3537f
c1 129 0 0.535197f
c2 128 0 1.07614f
c3 125 0 0.0883956f
c4 124 0 6.99744f
c5 122 0 0.170561f
c6 120 0 6.43826f
c7 114 0 2.68944f
c8 104 0 0.607693f
c9 103 0 0.168886f
c10 102 0 3.04886f
c11 96 0 3.04886f
c12 73 0 0.00729216f
c13 65 0 1.71078f
c14 58 0 3.2228f
c15 33 0 0.448888f
r16 132 135 2.05733 
r17 126 128 0.104334 
r18 126 142 1.5 
r19 124 128 0.0818962 
r20 124 125 7.299 
r21 132 122 6 
r22 120 122 6 
r23 119 125 0.0446983 
r24 119 120 5.832 
r25 129 111 0.00142683 
r26 108 129 0.0277856 
r27 104 129 5.05882 
r28 103 129 5.05882 
r29 98 104 3.88985 
r30 98 102 183.96 
r31 93 103 3.88985 
r32 93 96 183.96 
r33 65 62 1.59714 
r34 114 62 6 
r35 59 117 3.29429 
r36 114 59 0.874286 
r37 59 135 6 
r38 58 73 4.93143 
r39 117 58 6 
r40 142 33 0.00195122 
r41 33 111 3 
r42 8 142 0.0536585 
r43 8 108 3 
.ends

.subckt PM_PC3B04%U17_ngate2 68 73 114 124 129 136 188
c0 253 0 0.274495f
c1 248 0 0.441283f
c2 240 0 0.672316f
c3 228 0 1.2285f
c4 226 0 0.676403f
c5 225 0 0.510262f
c6 223 0 0.0802552f
c7 222 0 8.32596f
c8 218 0 4.24946f
c9 216 0 0.359407f
c10 215 0 0.525112f
c11 214 0 0.0955927f
c12 203 0 0.140355f
c13 199 0 0.173229f
c14 191 0 0.192586f
c15 189 0 0.169309f
c16 188 0 3.10493f
c17 168 0 0.31214f
c18 163 0 12.6696f
c19 153 0 0.684216f
c20 152 0 3.16115f
c21 147 0 3.09544f
c22 146 0 0.13299f
c23 144 0 0.0343464f
c24 141 0 0.0822206f
c25 140 0 0.233058f
c26 136 0 0.47622f
c27 134 0 0.0284138f
c28 133 0 0.038923f
c29 129 0 0.493641f
c30 124 0 1.53216f
c31 122 0 0.0691107f
c32 121 0 0.123067f
c33 119 0 0.66055f
c34 118 0 3.58588f
c35 114 0 2.23045f
c36 83 0 0.974231f
c37 73 0 3.04886f
c38 72 0 0.168487f
c39 68 0 3.04886f
c40 67 0 0.168487f
c41 8 0 0.465472f
r42 239 248 0.00292683 
r43 245 239 0.0526829 
r44 237 239 1.5 
r45 236 237 0.0103923 
r46 228 229 6 
r47 226 237 0.0891461 
r48 226 228 1.18333 
r49 224 236 0.020377 
r50 224 225 0.158689 
r51 222 225 0.0615435 
r52 222 223 9.1 
r53 218 220 6 
r54 217 223 0.0446983 
r55 217 218 4.868 
r56 216 229 0.0820409 
r57 215 220 0.550345 
r58 214 216 0.047558 
r59 213 253 0.02 
r60 213 214 0.0746667 
r61 205 208 0.58625 
r62 203 205 0.0448391 
r63 203 204 0.0717241 
r64 199 201 6 
r65 198 215 0.0447026 
r66 198 199 0.185763 
r67 194 240 0.00142683 
r68 191 201 0.108017 
r69 189 240 1.85294 
r70 184 189 3.88985 
r71 184 188 183.96 
r72 167 168 0.245 
r73 191 167 0.04 
r74 153 211 0.742857 
r75 153 163 6 
r76 211 152 6 
r77 150 163 1.12267 
r78 208 150 6 
r79 147 208 2.98125 
r80 147 168 6 
r81 204 146 6 
r82 142 152 4.21429 
r83 141 146 0.0468966 
r84 144 136 0.545714 
r85 134 144 0.0464898 
r86 133 142 0.0464898 
r87 133 134 0.0430769 
r88 128 129 0.79 
r89 123 124 1.745 
r90 121 123 0.0451268 
r91 121 122 0.124211 
r92 120 140 0.0321994 
r93 119 128 0.0447517 
r94 119 120 0.647059 
r95 118 122 0.0451268 
r96 117 141 0.0448391 
r97 117 118 5.505 
r98 113 167 0.02 
r99 113 114 2.2575 
r100 112 140 0.010241 
r101 112 114 1.98 
r102 78 83 5.05882 
r103 77 83 5.05882 
r104 72 78 3.88985 
r105 72 73 183.96 
r106 67 77 3.88985 
r107 67 68 183.96 
r108 83 45 0.00133393 
r109 245 45 3 
r110 20 83 0.0278113 
r111 248 20 3 
r112 8 253 0.00585366 
r113 8 194 3 
.ends

.subckt PM_PC3B04%CIN 14 19 26 65 117 157
c0 161 0 0.176073f
c1 154 0 0.179764f
c2 145 0 0.19505f
c3 136 0 0.153137f
c4 126 0 0.354222f
c5 120 0 5.80316f
c6 114 0 0.145071f
c7 112 0 0.981255f
c8 110 0 15.8695f
c9 108 0 1.30871f
c10 106 0 7.73464f
c11 104 0 0.0537499f
c12 103 0 4.58311f
c13 102 0 3.25007f
c14 100 0 0.127143f
c15 94 0 1.34275f
c16 91 0 0.0704816f
c17 89 0 0.0403523f
c18 88 0 0.0348746f
c19 86 0 0.0348253f
c20 85 0 1.43545f
c21 83 0 0.224531f
c22 81 0 7.82121f
c23 76 0 0.0936397f
c24 75 0 0.0503498f
c25 72 0 1.32829f
c26 69 0 0.335769f
c27 65 0 0.618414f
c28 61 0 0.0758895f
c29 60 0 0.124682f
c30 59 0 0.0657293f
c31 58 0 0.128454f
c32 57 0 5.22336f
c33 42 0 1.2547f
c34 38 0 0.0360401f
c35 35 0 0.0599181f
c36 30 0 0.415419f
c37 26 0 1.18102f
c38 24 0 0.0608575f
c39 23 0 0.358977f
c40 19 0 1.0408f
c41 14 0 0.668295f
r42 159 161 0.0753623 
r43 154 157 0.0261918 
r44 154 155 0.0513917 
r45 145 150 6 
r46 131 133 5.52143 
r47 128 161 6 
r48 150 126 0.282857 
r49 124 126 6 
r50 124 128 4.29286 
r51 120 122 6 
r52 120 124 4.15286 
r53 114 117 0.0261918 
r54 114 154 6 
r55 112 122 1.47429 
r56 133 110 11.7214 
r57 108 110 6 
r58 107 112 0.0446983 
r59 107 108 2.23571 
r60 105 159 0.020058 
r61 105 106 12.1858 
r62 103 106 0.0446983 
r63 103 104 6.85677 
r64 140 102 4.48 
r65 100 102 6 
r66 155 100 0.285714 
r67 98 104 0.0448488 
r68 98 100 0.0371429 
r69 91 140 3 
r70 89 91 0.15 
r71 87 89 0.0446983 
r72 87 88 0.114286 
r73 85 88 0.0446983 
r74 85 86 3.04143 
r75 81 83 6 
r76 80 86 0.0446983 
r77 80 81 14.96 
r78 76 136 6 
r79 75 76 0.124138 
r80 72 131 6 
r81 70 75 0.0447162 
r82 70 72 2.17143 
r83 68 145 0.145714 
r84 68 69 0.0119838 
r85 67 83 0.231429 
r86 66 136 0.107143 
r87 64 69 0.0302706 
r88 64 65 0.3675 
r89 60 67 0.0446983 
r90 60 61 0.151429 
r91 58 66 0.0446983 
r92 58 59 0.151429 
r93 57 61 0.0446983 
r94 56 59 0.0446983 
r95 56 57 6.87286 
r96 55 65 0.9375 
r97 94 42 6 
r98 94 39 2.06571 
r99 39 133 6 
r100 36 35 0.0789583 
r101 35 42 1.63 
r102 31 38 0.029971 
r103 30 55 0.0450043 
r104 30 31 0.441081 
r105 25 38 0.0122637 
r106 25 26 0.9375 
r107 23 38 0.029971 
r108 23 24 0.441081 
r109 18 24 0.0450043 
r110 18 19 0.9375 
r111 36 14 0.60125 
.ends

.subckt PM_PC3B04%PAD 21 50 91 120 161 190 247 271 295 319 349 355 380 488 507
+ 514
c0 522 0 29.6229f
c1 515 0 83.501f
c2 514 0 64.3341f
c3 511 0 159.215f
c4 506 0 1.02644f
c5 499 0 9.94805f
c6 494 0 14.015f
c7 485 0 0.117887f
c8 482 0 214.111f
c9 468 0 15.3329f
c10 450 0 3.86775f
c11 381 0 128.276f
c12 380 0 1.04872f
c13 355 0 13.4236f
c14 349 0 13.4319f
c15 319 0 13.4098f
c16 295 0 13.4219f
c17 271 0 13.6954f
c18 247 0 13.4287f
c19 212 0 7.52869f
c20 190 0 2.98542f
c21 173 0 6.78401f
c22 161 0 2.98378f
c23 144 0 6.78401f
c24 120 0 2.98462f
c25 103 0 6.78401f
c26 91 0 2.98542f
c27 74 0 6.78401f
c28 50 0 2.98366f
c29 33 0 6.78401f
c30 21 0 2.98462f
c31 4 0 6.78401f
r32 522 523 0.118407 
r33 521 522 0.118407 
r34 520 521 0.056883 
r35 519 520 0.061524 
r36 518 519 0.118407 
r37 517 518 0.0830354 
r38 516 517 0.0353716 
r39 514 515 0.0124825 
r40 512 514 0.000593149 
r41 511 512 0.0669731 
r42 506 507 0.00916 
r43 499 517 0.0545455 
r44 494 520 0.015 
r45 485 488 0.00916 
r46 485 506 2 
r47 481 494 0.0264274 
r48 481 482 0.147774 
r49 475 476 0.00752787 
r50 474 475 0.021023 
r51 472 474 0.000537705 
r52 472 511 0.00162999 
r53 470 472 0.000537705 
r54 468 470 0.0285508 
r55 459 506 0.1388 
r56 458 459 0.132996 
r57 457 458 0.0171733 
r58 456 457 0.0171733 
r59 455 456 0.0171733 
r60 454 455 0.0171733 
r61 453 454 0.0171733 
r62 450 499 0.202116 
r63 482 383 0.0288462 
r64 381 453 0.00818451 
r65 381 383 0.00646891 
r66 450 380 0.0147368 
r67 344 349 0.0072093 
r68 453 344 0.0566038 
r69 342 355 0.0072093 
r70 458 342 0.0566038 
r71 315 319 0.0072093 
r72 457 315 0.0566038 
r73 291 295 0.0072093 
r74 456 291 0.0566038 
r75 267 271 0.0072093 
r76 455 267 0.0566038 
r77 243 247 0.0072093 
r78 454 243 0.0566038 
r79 223 226 0.0022831 
r80 476 223 0.0375475 
r81 223 512 0.00547945 
r82 474 222 0.00210084 
r83 220 222 0.000537705 
r84 470 220 0.00210084 
r85 222 218 0.0105115 
r86 475 218 0.00712251 
r87 214 226 0.0187738 
r88 218 214 0.00376393 
r89 476 214 0.00712251 
r90 212 220 0.0142754 
r91 468 212 0.00356125 
r92 515 197 0.345778 
r93 196 522 0.0220132 
r94 196 197 0.319822 
r95 190 177 0.00249413 
r96 197 177 0.0425532 
r97 173 190 0.00249413 
r98 197 173 0.0425532 
r99 515 168 0.345778 