* File: pt3t03.dist.sp.pex
* Created: Sun Jul  4 13:09:47 2010
* Program "Calibre xRC"
* Version "v2008.4_19.14"
* Nominal Temperature: 27C
* Circuit Temperature: 27C
* 
.subckt PM_PT3T03%PAD 21 50 79 108 137 166 218 242 266 290 320 326 389 428 452
+ 459
c0 467 0 29.5735f
c1 460 0 83.0964f
c2 459 0 64.3341f
c3 456 0 159.215f
c4 451 0 0.991473f
c5 444 0 9.95468f
c6 434 0 13.8464f
c7 425 0 0.117887f
c8 423 0 212.84f
c9 408 0 15.3329f
c10 397 0 46.9214f
c11 392 0 65.4578f
c12 390 0 15.8911f
c13 389 0 1.04872f
c14 388 0 3.88278f
c15 326 0 13.3728f
c16 320 0 13.3831f
c17 290 0 13.3635f
c18 266 0 13.3725f
c19 242 0 13.6388f
c20 218 0 13.36f
c21 176 0 7.52869f
c22 166 0 2.98552f
c23 149 0 6.78371f
c24 137 0 2.98621f
c25 120 0 6.78371f
c26 108 0 2.98621f
c27 91 0 6.78371f
c28 79 0 2.98621f
c29 62 0 6.78371f
c30 50 0 2.9855f
c31 33 0 6.78371f
c32 21 0 2.98537f
c33 4 0 6.78371f
r34 467 468 0.118407 
r35 466 467 0.118407 
r36 465 466 0.056883 
r37 464 465 0.061524 
r38 463 464 0.118407 
r39 462 463 0.0830354 
r40 461 462 0.0353716 
r41 459 460 0.0124825 
r42 457 459 0.000593149 
r43 456 457 0.0669731 
r44 451 452 0.00916 
r45 444 462 0.0545455 
r46 434 465 0.015 
r47 425 428 0.00916 
r48 425 451 2 
r49 423 434 0.0264274 
r50 421 423 0.147454 
r51 421 422 0.0288462 
r52 415 416 0.00752787 
r53 414 415 0.021023 
r54 412 414 0.000537705 
r55 412 456 0.00162999 
r56 410 412 0.000537705 
r57 408 410 0.0285508 
r58 399 451 0.1388 
r59 398 399 0.132996 
r60 397 398 0.0171733 
r61 394 395 0.0171733 
r62 393 394 0.0171733 
r63 392 393 0.0171733 
r64 391 397 0.0142401 
r65 391 395 0.00293318 
r66 390 422 0.00646891 
r67 390 392 0.00818451 
r68 388 444 0.202116 
r69 388 389 0.0147368 
r70 315 320 0.0072093 
r71 392 315 0.0566038 
r72 313 326 0.0072093 
r73 398 313 0.0566038 
r74 286 290 0.0072093 
r75 397 286 0.0566038 
r76 262 266 0.0072093 
r77 395 262 0.0566038 
r78 238 242 0.0072093 
r79 394 238 0.0566038 
r80 214 218 0.0072093 
r81 393 214 0.0566038 
r82 194 197 0.0022831 
r83 416 194 0.0375475 
r84 194 457 0.00547945 
r85 414 193 0.00210084 
r86 191 193 0.000537705 
r87 410 191 0.00210084 
r88 193 182 0.0105115 
r89 415 182 0.00712251 
r90 178 197 0.0187738 
r91 182 178 0.00376393 
r92 416 178 0.00712251 
r93 176 191 0.0142754 
r94 408 176 0.00356125 
r95 460 173 0.345778 
r96 172 468 0.0220132 
r97 172 173 0.319822 
r98 166 153 0.00249413 
r99 173 153 0.0425532 
r100 149 166 0.00249413 
r101 173 149 0.0425532 
r102 460 144 0.345778 
r103 143 467 0.0220132 
r104 143 144 0.319822 
r105 137 124 0.00249413 
r106 144 124 0.0425532 
r107 120 137 0.00249413 
r108 144 120 0.0425532 
r109 460 115 0.345778 
r110 114 466 0.0220132 
r111 114 115 0.319822 
r112 108 95 0.00249413 
r113 115 95 0.0425532 
r114 91 108 0.00249413 
r115 115 91 0.0425532 
r116 460 86 0.345778 
r117 85 464 0.0220132 
r118 85 86 0.319822 
r119 79 66 0.00249413 
r120 86 66 0.0425532 
r121 62 79 0.00249413 
r122 86 62 0.0425532 
r123 460 57 0.345778 
r124 56 463 0.0220132 
r125 56 57 0.319822 
r126 50 37 0.00249413 
r127 57 37 0.0425532 
r128 33 50 0.00249413 
r129 57 33 0.0425532 
r130 460 28 0.345778 
r131 27 461 0.0220132 
r132 27 28 0.319822 
r133 21 8 0.00249413 
r134 28 8 0.0425532 
r135 4 21 0.00249413 
r136 28 4 0.0425532 
.ends

.subckt PM_PT3T03%noxref_2 8 18
c0 20 0 4.82229f
c1 18 0 0.98902f
c2 8 0 6.70703f
r3 18 20 0.158105 
r4 20 8 0.158526 
.ends

.subckt PM_PT3T03%net_m20_VSSO_res 25 97 101 105 109 113
c0 113 0 0.519409f
c1 109 0 0.519409f
c2 105 0 0.519409f
c3 101 0 0.722728f
c4 97 0 0.73297f
c5 93 0 0.840865f
c6 87 0 0.0544917f
c7 53 0 0.0628754f
c8 43 0 0.236393f
c9 42 0 0.19588f
c10 41 0 0.135544f
c11 40 0 0.100649f
c12 39 0 0.162435f
c13 25 0 0.371125f
c14 24 0 0.190505f
c15 23 0 0.0477785f
c16 22 0 0.363804f
r17 88 93 0.0552941 
r18 87 88 0.02 
r19 86 87 0.124706 
r20 54 97 85 
r21 52 113 85 
r22 52 53 0.93595 
r23 51 109 85 
r24 50 51 1.5553 
r25 49 93 2.20253 
r26 48 50 6.2212 
r27 48 49 1.5553 
r28 47 105 85 
r29 46 48 10.0922 
r30 46 47 1.5553 
r31 45 101 85 
r32 44 53 2.23066 
r33 43 54 3.37824 
r34 43 44 10.8571 
r35 42 50 4.70046 
r36 41 53 2.23066 
r37 41 42 9 
r38 40 45 3.37824 
r39 39 46 2.90323 
r40 39 40 10.8571 
r41 24 25 0.18 
r42 86 23 0.0446983 
r43 22 24 0.0446983 
r44 22 23 0.521176 
.ends

.subckt PM_PT3T03%U29_padr 40 44 52 118 120 123 163
c0 233 0 16.1602f
c1 227 0 9.31824f
c2 223 0 15.8967f
c3 206 0 0.145078f
c4 205 0 0.0372956f
c5 204 0 0.0478417f
c6 203 0 0.0873247f
c7 200 0 6.60484f
c8 197 0 0.611623f
c9 195 0 0.145688f
c10 191 0 5.63632f
c11 189 0 0.516633f
c12 187 0 0.0693973f
c13 186 0 0.207306f
c14 185 0 0.411447f
c15 179 0 2.02756f
c16 173 0 0.54384f
c17 164 0 0.397157f
c18 163 0 1.07645f
c19 162 0 0.703354f
c20 143 0 0.430672f
c21 138 0 0.0817276f
c22 123 0 1.0541f
c23 120 0 0.572967f
c24 118 0 1.02328f
c25 111 0 0.0984887f
c26 92 0 0.134724f
c27 90 0 16.081f
c28 85 0 0.564034f
c29 84 0 0.372644f
c30 82 0 0.114634f
c31 79 0 1.71151f
c32 78 0 0.632067f
c33 72 0 0.0453459f
c34 71 0 0.0323182f
c35 70 0 0.0845293f
c36 65 0 0.13853f
c37 62 0 0.0978874f
c38 58 0 0.315524f
c39 56 0 0.0695685f
c40 55 0 0.0982496f
c41 52 0 1.2618f
c42 49 0 0.0688621f
c43 48 0 0.372832f
c44 44 0 2.39984f
c45 40 0 2.31489f
r46 233 225 0.172857 
r47 223 225 6 
r48 222 223 10.9933 
r49 206 208 3 
r50 205 206 0.109474 
r51 205 203 0.0456991 
r52 203 204 0.147143 
r53 200 233 2 
r54 198 204 0.0446983 
r55 198 200 10.3129 
r56 197 208 0.30381 
r57 193 195 0.10375 
r58 227 191 0.185079 
r59 189 191 1.2 
r60 188 189 0.482857 
r61 186 188 0.0446983 
r62 186 187 0.125714 
r63 185 187 0.0446983 
r64 184 197 0.0446983 
r65 184 185 0.407619 
r66 179 181 2.8475 
r67 172 195 0.02 
r68 172 173 0.755 
r69 168 193 0.02 
r70 162 227 0.18836 
r71 162 163 0.0147368 
r72 127 129 3.112 
r73 143 111 0.77 
r74 110 123 168.333 
r75 110 111 3.92502 
r76 105 120 51.6667 
r77 104 105 1.66667 
r78 97 118 168.333 
r79 138 97 3.6393 
r80 179 92 6 
r81 129 90 1.07733 
r82 181 90 6 
r83 181 87 0.8025 
r84 87 143 6 
r85 85 177 1.2525 
r86 85 222 6 
r87 84 138 0.7825 
r88 177 84 6 
r89 173 82 6 
r90 79 170 0.8 
r91 168 79 2.045 
r92 79 129 6 
r93 170 78 6 
r94 76 222 3.984 
r95 164 76 6 
r96 164 73 0.482667 
r97 73 127 6 
r98 72 92 0.05 
r99 68 70 0.12 
r100 68 78 0.8825 
r101 66 82 0.04375 
r102 65 66 0.02 
r103 63 65 0.10375 
r104 62 72 0.0446983 
r105 61 71 0.0338756 
r106 61 62 0.1875 
r107 58 104 1.16667 
r108 57 71 0.0338756 
r109 57 58 0.245 
r110 55 71 0.00880368 
r111 55 56 0.25 
r112 51 56 0.0446983 
r113 51 52 1.2575 
r114 50 52 1.3775 
r115 48 50 0.0447588 
r116 48 49 0.544 
r117 70 44 2.375 
r118 39 63 0.02 
r119 39 40 1.40875 
r120 38 49 0.0447588 
r121 38 40 1.3775 
.ends

.subckt PM_PT3T03%VSS 759 799 821 846 851 863 865 870
c0 870 0 91.8367f
c1 863 0 56.3132f
c2 849 0 2.37405f
c3 846 0 0.00368951f
c4 843 0 1.24098f
c5 829 0 16.5735f
c6 817 0 1.88726f
c7 810 0 15.9299f
c8 796 0 1.45963f
c9 773 0 24.8375f
c10 771 0 0.0842555f
c11 770 0 10.3482f
c12 769 0 0.0657505f
c13 768 0 7.73292f
c14 766 0 0.184939f
c15 763 0 0.0372194f
c16 759 0 4.21717f
c17 756 0 0.144425f
c18 754 0 0.578419f
c19 747 0 8.75359f
c20 745 0 0.194283f
c21 744 0 0.100669f
c22 743 0 1.98794f
c23 620 0 2.22371f
c24 616 0 2.49386f
c25 612 0 1.36882f
c26 610 0 0.228409f
c27 608 0 0.276497f
c28 605 0 26.7791f
c29 599 0 0.816164f
c30 598 0 6.34069f
c31 592 0 2.03915f
c32 586 0 0.137389f
c33 585 0 2.49119f
c34 584 0 0.154374f
c35 583 0 2.24749f
c36 539 0 0.162892f
c37 537 0 0.72248f
c38 535 0 0.203897f
c39 510 0 2.94295f
c40 496 0 3.05881f
c41 494 0 0.031054f
c42 491 0 0.571035f
c43 490 0 6.9112f
c44 489 0 0.161087f
c45 474 0 3.7501f
c46 471 0 2.96224f
r47 865 868 0.000703354 
r48 861 863 0.00318245 
r49 860 861 0.00119641 
r50 859 860 0.0758524 
r51 858 859 0.0344168 
r52 857 858 0.167059 
r53 856 857 0.128574 
r54 855 856 0.0141176 
r55 854 855 0.089651 
r56 851 854 0.00438684 
r57 849 861 0.461538 
r58 843 846 1.28857 
r59 843 859 1.5 
r60 837 857 0.0535714 
r61 824 860 0.428571 
r62 821 824 0.189 
r63 819 870 0.000702051 
r64 868 819 0.0832563 
r65 817 819 0.131579 
r66 817 821 0.013 
r67 814 815 0.56934 
r68 813 814 1.12447 
r69 810 813 0.628223 
r70 810 858 0.3 
r71 802 854 0.428571 
r72 799 802 0.189 
r73 796 799 0.013 
r74 796 868 0.131579 
r75 770 771 0.0338756 
r76 768 837 2.8715 
r77 768 769 0.0338756 
r78 762 771 0.0338756 
r79 761 769 0.0338756 
r80 759 841 2.59036 
r81 839 759 1.07807 
r82 829 759 1.552 
r83 758 771 0.00880368 
r84 758 759 0.958 
r85 757 769 0.00880368 
r86 757 759 0.986 
r87 766 756 0.0632911 
r88 756 754 0.0574488 
r89 753 763 0.0448201 
r90 750 849 1.518 
r91 749 849 0.426 
r92 747 841 1.08482 
r93 745 839 1.06072 
r94 744 829 1.5515 
r95 743 744 0.0448201 
r96 743 753 2.13041 
r97 770 622 0.733 
r98 759 622 1.93 
r99 620 783 3 
r100 617 837 1.612 
r101 763 617 1.283 
r102 617 856 1.5 
r103 839 616 1 
r104 783 612 0.24 
r105 814 612 1.5 
r106 622 610 3 
r107 813 610 3 
r108 608 841 3 
r109 815 608 3 
r110 605 807 1.1314 
r111 605 855 0.125 
r112 604 616 0.0075 
r113 625 604 0.056 
r114 807 604 0.24 
r115 602 766 0.0155975 
r116 773 602 1 
r117 600 773 0.9662 
r118 600 625 0.02 
r119 599 762 0.5005 
r120 750 599 0.0446983 
r121 598 761 0.5005 
r122 749 598 0.0446983 
r123 597 620 0.830244 
r124 596 620 0.573659 
r125 591 592 1.37048 
r126 586 597 0.0448242 
r127 586 587 0.678222 
r128 585 592 0.0447675 
r129 585 587 0.650667 
r130 584 596 0.0446983 
r131 583 591 0.0447067 
r132 583 584 1.45854 
r133 538 539 0.147619 
r134 534 535 0.14988 
r135 747 534 0.0380723 
r136 531 533 0.143333 
r137 745 530 0.0385542 
r138 528 530 0.14506 
r139 759 527 0.159 
r140 510 759 0.159 
r141 509 539 0.02 
r142 509 527 1.247 
r143 508 535 0.02 
r144 508 510 1.243 
r145 759 507 0.192 
r146 505 759 0.192 
r147 504 505 0.342 
r148 759 504 0.192 
r149 502 759 0.192 
r150 501 502 0.342 
r151 759 501 0.192 
r152 499 759 0.192 
r153 498 499 0.342 
r154 759 498 0.192 
r155 496 759 0.192 
r156 495 538 0.02 
r157 495 507 1.214 
r158 494 537 0.04 
r159 494 496 0.243 
r160 492 534 0.02 
r161 492 537 0.938734 
r162 602 491 0.102486 
r163 490 538 0.0380952 
r164 490 491 4.80524 
r165 489 754 0.555238 
r166 489 533 0.0380952 
r167 759 485 0.159 
r168 483 759 0.159 
r169 482 483 0.408 
r170 759 482 0.159 
r171 480 759 0.159 
r172 479 480 0.408 
r173 759 479 0.159 
r174 477 759 0.159 
r175 476 477 0.408 
r176 759 476 0.159 
r177 474 759 0.159 
r178 473 533 0.02 
r179 473 485 1.247 
r180 472 530 0.02 
r181 472 474 1.243 
r182 471 531 0.02 
r183 470 528 0.02 
r184 470 471 4.69271 
.ends

.subckt PM_PT3T03%U29_U42_r1 53 58 66
c0 135 0 0.252886f
c1 131 0 0.130993f
c2 125 0 2.82662f
c3 116 0 0.432351f
c4 110 0 0.304369f
c5 108 0 0.379151f
c6 106 0 0.0792102f
c7 105 0 0.329567f
c8 102 0 6.54958f
c9 99 0 0.181486f
c10 98 0 9.1289f
c11 97 0 0.629329f
c12 96 0 0.299845f
c13 93 0 0.136486f
c14 87 0 0.0903556f
c15 79 0 0.171215f
c16 73 0 0.678581f
c17 67 0 0.305615f
c18 66 0 0.278026f
c19 61 0 0.163718f
c20 60 0 0.550917f
c21 58 0 3.10095f
c22 53 0 3.10208f
r23 115 135 0.00341463 
r24 113 115 3 
r25 113 116 0.017 
r26 111 113 0.0283 
r27 109 116 0.02 
r28 109 110 0.662857 
r29 108 111 0.02 
r30 107 108 0.102305 
r31 105 110 0.0446983 
r32 105 106 0.352857 
r33 102 131 6 
r34 100 106 0.0448488 
r35 100 102 6.78194 
r36 98 107 0.064391 
r37 98 99 10.818 
r38 97 99 0.0661591 
r39 127 96 0.0521951 
r40 95 97 0.11639 
r41 95 96 3 
r42 91 131 0.130323 
r43 90 93 0.153548 
r44 90 91 0.02 
r45 87 125 6 
r46 85 93 0.02 
r47 85 87 0.132903 
r48 84 125 3.99613 
r49 83 84 0.026898 
r50 79 83 0.10143 
r51 79 66 0.106667 
r52 61 73 1.85294 
r53 60 67 1.85294 
r54 55 61 3.88985 
r55 55 58 183.96 
r56 50 60 3.88985 
r57 50 53 183.96 
r58 73 27 0.00142683 
r59 135 27 3 
r60 67 9 0.00142683 
r61 127 9 3 
.ends

.subckt PM_PT3T03%VSSO 409 434 436 472 793 797 804 833 840 852 866 868 873 878
+ 884 893 899 905 911 920 926 932 941 947 953 962 968 974 983 989 1001 1053 1059
+ 1063 1069
c0 1069 0 32.0829f
c1 1056 0 1.98471f
c2 1053 0 46.2204f
c3 1033 0 7.93913f
c4 1031 0 6.95922f
c5 1026 0 6.95977f
c6 1021 0 6.96055f
c7 1016 0 6.96135f
c8 1011 0 6.96246f
c9 1001 0 0.00201521f
c10 996 0 8.95235f
c11 989 0 0.342408f
c12 974 0 1.36597f
c13 968 0 1.40025f
c14 953 0 1.35721f
c15 947 0 1.35737f
c16 932 0 2.01154f
c17 926 0 1.61252f
c18 911 0 0.968621f
c19 905 0 0.84021f
c20 899 0 1.38502f
c21 884 0 2.02569f
c22 878 0 1.55543f
c23 873 0 1.69059f
c24 871 0 0.237135f
c25 868 0 0.00103378f
c26 866 0 8.25608e-19
c27 864 0 8.96457f
c28 850 0 7.86103f
c29 846 0 1.27875f
c30 836 0 1.65707f
c31 833 0 58.2594f
c32 800 0 1.34161f
c33 797 0 10.6383f
c34 785 0 0.115216f
c35 779 0 4.90384f
c36 776 0 0.112261f
c37 775 0 0.0401513f
c38 774 0 1.55614f
c39 772 0 0.0510217f
c40 771 0 0.328516f
c41 770 0 0.651344f
c42 764 0 0.572684f
c43 760 0 0.708327f
c44 758 0 0.0415494f
c45 757 0 3.2491f
c46 755 0 0.383003f
c47 754 0 0.713156f
c48 753 0 0.303464f
c49 752 0 3.2754f
c50 751 0 0.383249f
c51 750 0 2.10295f
c52 748 0 0.0503886f
c53 747 0 0.19079f
c54 746 0 0.343029f
c55 713 0 0.122915f
c56 712 0 8.88886f
c57 679 0 0.264591f
c58 675 0 7.03694f
c59 671 0 0.146306f
c60 472 0 0.401387f
c61 456 0 1.09054f
c62 454 0 0.102291f
c63 452 0 0.228551f
c64 450 0 1.6764f
c65 449 0 0.0407892f
c66 448 0 0.346472f
c67 436 0 0.889314f
c68 435 0 0.117657f
c69 434 0 0.34681f
c70 433 0 0.192908f
c71 430 0 0.0481945f
c72 429 0 0.43737f
c73 409 0 0.114597f
c74 402 0 0.121644f
c75 317 0 5.73116f
c76 284 0 14.0332f
c77 234 0 14.0334f
c78 184 0 14.0339f
c79 134 0 14.0355f
c80 84 0 14.0371f
c81 10 0 0.146306f
r82 1067 1069 0.00282778 
r83 1066 1067 0.355444 
r84 1063 1066 0.00283333 
r85 1058 1060 0.0106667 
r86 1058 1059 0.02 
r87 1056 1058 0.0143333 
r88 1050 1051 0.166203 
r89 1049 1050 0.0396791 
r90 1048 1049 0.043262 
r91 1047 1048 0.0347594 
r92 1046 1047 0.0198396 
r93 1045 1046 0.0672192 
r94 1044 1045 0.0253476 
r95 1043 1044 0.0359893 
r96 1042 1043 0.0374332 
r97 1041 1042 0.0226738 
r98 1040 1041 0.0233155 
r99 1039 1040 0.0203209 
r100 1038 1039 0.0213904 
r101 1037 1056 0.02 
r102 1037 1038 0.0720856 
r103 1005 1006 0.0140639 
r104 1000 1001 0.0126606 
r105 1033 998 0.0113761 
r106 996 998 0.0638298 
r107 993 1051 2 
r108 989 993 0.000380952 
r109 977 1050 0.6 
r110 974 977 0.285 
r111 971 1049 0.6 
r112 968 971 0.32 
r113 956 1048 0.6 
r114 953 956 0.36 
r115 950 1047 0.6 
r116 947 950 0.37 
r117 935 1045 0.6 
r118 932 935 0.9975 
r119 929 1044 0.6 
r120 926 929 0.995 
r121 914 1043 0.6 
r122 911 914 0.3425 
r123 908 1042 0.75 
r124 905 908 0.04 
r125 902 1041 0.6 
r126 899 902 0.365 
r127 887 1040 0.6 
r128 884 887 0.194286 
r129 881 1039 0.6 
r130 878 881 0.3175 
r131 875 1038 0.666667 
r132 873 875 0.96 
r133 866 1000 0.013211 
r134 996 866 0.000917431 
r135 864 866 0.000913242 
r136 864 1005 0.0638298 
r137 851 852 0.02 
r138 850 1005 0.0113242 
r139 848 850 0.0327869 
r140 848 851 0.0166784 
r141 846 848 0.029258 
r142 843 1067 0.357143 
r143 840 843 0.21 
r144 838 1053 0.00544385 
r145 1051 838 0.0345455 
r146 836 838 1 
r147 836 840 0.445 
r148 831 833 0.00612761 
r149 831 1033 0.0327869 
r150 983 829 0.130435 
r151 829 1031 0.00301741 
r152 1028 829 0.00301741 
r153 827 829 0.0266667 
r154 827 831 0.0287785 
r155 962 826 0.130435 
r156 826 1026 0.00301741 
r157 1023 826 0.00301741 
r158 824 826 0.0266667 
r159 824 827 0.0242129 
r160 941 823 0.130435 
r161 823 1021 0.00301741 
r162 1018 823 0.00301741 
r163 821 823 0.0266667 
r164 821 824 0.0242129 
r165 820 821 0.000615582 
r166 920 819 0.130435 
r167 819 1016 0.00301741 
r168 1013 819 0.00301741 
r169 817 819 0.0266667 
r170 817 820 0.0235973 
r171 893 816 0.130435 
r172 816 1011 0.00301741 
r173 1008 816 0.00301741 
r174 814 816 0.0266667 
r175 814 817 0.0242129 
r176 813 846 0.02 
r177 813 814 0.0277012 
r178 851 810 0.429445 
r179 807 1066 0.357143 
r180 804 807 0.21 
r181 802 1062 0.144409 
r182 1060 802 0.034 
r183 800 802 1 
r184 800 804 0.445 
r185 788 871 3 
r186 785 788 0.0536842 
r187 778 785 0.02 
r188 778 779 6.35789 
r189 775 776 0.1275 
r190 774 775 0.0448391 
r191 773 774 2.75862 
r192 771 773 0.044715 
r193 771 772 0.466667 
r194 770 772 0.0450432 
r195 1062 770 1.29371 
r196 764 785 0.02 
r197 764 765 0.746316 
r198 762 1001 0.230275 
r199 760 996 0.210275 
r200 758 871 0.109474 
r201 756 868 0.229041 
r202 756 757 0.0863581 
r203 754 864 0.209132 
r204 754 755 0.0863581 
r205 762 752 0.0861375 
r206 752 753 0.132033 
r207 760 751 0.0861375 
r208 758 750 0.0420103 
r209 749 750 3.01467 
r210 747 749 0.0446983 
r211 747 748 0.289333 
r212 746 748 0.0447588 
r213 713 866 0.128 
r214 712 753 0.0473573 
r215 712 866 0.126 
r216 679 713 0.0473573 
r217 757 679 0.132033 
r218 675 866 0.126 
r219 674 873 1.1475 
r220 672 866 0.128 
r221 671 672 0.0473573 
r222 671 755 0.250407 
r223 779 458 6 
r224 1046 456 0.75 
r225 776 454 3 
r226 472 452 0.0610526 
r227 765 452 2 
r228 449 456 0.437895 
r229 449 450 0.0407126 
r230 674 448 0.0338756 
r231 435 458 0.0413535 
r232 435 436 1.14783 
r233 433 434 0.221176 
r234 429 433 0.0446983 
r235 429 430 0.608235 
r236 427 430 0.0446983 
r237 427 450 2.01647 
r238 408 448 0.00880368 
r239 408 409 0.1375 
r240 402 746 0.6025 
r241 402 454 0.0265396 
r242 320 797 0.0419737 
r243 793 320 0.0413851 
r244 820 320 0.00128205 
r245 810 317 2.21804 
r246 317 1060 0.6 
r247 983 284 0.00313778 
r248 1031 284 0.0652174 
r249 998 273 0.0141284 
r250 273 1000 0.0652174 
r251 962 234 0.00313778 
r252 1026 234 0.0652174 
r253 224 983 0.00313778 
r254 1028 224 0.0652174 
r255 941 184 0.00313778 
r256 1021 184 0.0652174 
r257 174 962 0.00313778 
r258 1023 174 0.0652174 
r259 920 134 0.00313778 
r260 1016 134 0.0652174 
r261 124 941 0.00313778 
r262 1018 124 0.0652174 
r263 893 84 0.00313778 
r264 1011 84 0.0652174 
r265 74 920 0.00313778 
r266 1013 74 0.0652174 
r267 34 868 0.0126027 
r268 866 34 0.0131507 
r269 1006 34 0.0652174 
r270 24 893 0.00313778 
r271 1008 24 0.0652174 
r272 10 751 0.250407 
r273 10 675 0.0473573 
.ends

.subckt PM_PT3T03%U30_ngate 106 115 122 129 136 173 175 193 235 240 245 251
c0 325 0 0.445926f
c1 317 0 16.5377f
c2 310 0 0.533624f
c3 303 0 1.13758f
c4 300 0 1.4773f
c5 296 0 1.11687f
c6 295 0 1.16894f
c7 294 0 0.0674234f
c8 291 0 0.211175f
c9 289 0 5.47037f
c10 285 0 0.137403f
c11 279 0 0.719773f
c12 274 0 2.99555f
c13 258 0 0.533624f
c14 255 0 0.606155f
c15 254 0 0.166949f
c16 253 0 0.606155f
c17 252 0 0.166892f
c18 251 0 3.04886f
c19 245 0 3.04886f
c20 240 0 3.04886f
c21 235 0 3.04886f
c22 193 0 1.96078f
c23 183 0 0.432413f
c24 175 0 0.595958f
c25 173 0 0.831149f
c26 170 0 0.149707f
c27 167 0 0.145613f
c28 158 0 1.99646f
c29 155 0 2.78887f
c30 148 0 3.13562f
c31 146 0 0.0325297f
c32 143 0 0.0261329f
c33 136 0 1.05413f
c34 134 0 0.0760973f
c35 133 0 0.411599f
c36 129 0 1.33816f
c37 126 0 0.362266f
c38 122 0 1.34432f
c39 120 0 0.0712321f
c40 119 0 0.246444f
c41 115 0 1.46684f
c42 113 0 0.677983f
c43 111 0 0.0621076f
c44 110 0 0.332588f
c45 106 0 2.04929f
c46 62 0 0.449025f
r47 316 317 6.66267 
r48 313 316 1.85067 
r49 303 306 0.0665098 
r50 303 329 1.5 
r51 299 325 0.00536585 
r52 322 299 0.0502439 
r53 297 299 1.5 
r54 297 300 0.122734 
r55 297 296 0.109057 
r56 295 306 0.02 
r57 295 296 1.378 
r58 300 294 1.7 
r59 313 291 6 
r60 289 291 6 
r61 288 294 0.0450816 
r62 288 289 7.68471 
r63 285 283 0.0545192 
r64 279 282 0.0447588 
r65 279 280 0.876 
r66 310 271 0.00142683 
r67 268 310 0.0277856 
r68 255 310 5.05882 
r69 254 310 5.05882 
r70 253 258 5.05882 
r71 252 258 5.05882 
r72 247 255 3.88985 
r73 247 251 183.96 
r74 242 254 3.88985 
r75 242 245 183.96 
r76 237 253 3.88985 
r77 237 240 183.96 
r78 232 252 3.88985 
r79 232 235 183.96 
r80 170 175 60 
r81 170 190 3.77986 
r82 167 173 85 
r83 167 183 3.53757 
r84 285 158 6 
r85 283 155 2.2175 
r86 282 155 1.515 
r87 155 317 6 
r88 193 154 1.505 
r89 280 154 6 
r90 183 152 0.3325 
r91 274 152 6 
r92 149 277 2.2825 
r93 274 149 1.32 
r94 149 316 6 
r95 148 190 3.7825 
r96 277 148 6 
r97 145 158 3.105 
r98 145 146 0.0329896 
r99 144 193 1.3075 
r100 140 142 0.06125 
r101 135 146 0.0329896 
r102 135 136 1.2375 
r103 133 146 0.00955498 
r104 133 134 0.526452 
r105 128 134 0.044713 
r106 128 129 1.2375 
r107 127 143 0.0338756 
r108 126 144 0.0446983 
r109 126 127 0.51 
r110 121 143 0.00880368 
r111 121 122 1.3075 
r112 120 142 0.04 
r113 119 143 0.0338756 
r114 119 120 0.4325 
r115 114 142 0.02 
r116 114 115 1.4425 
r117 113 140 0.02 
r118 112 113 1.08375 
r119 110 112 0.0450043 
r120 110 111 0.388108 
r121 105 111 0.0450043 
r122 105 106 1.93125 
r123 329 62 0.00292683 
r124 62 271 3 
r125 258 38 0.00142683 
r126 325 38 3 
r127 26 329 0.0526829 
r128 26 268 3 
r129 258 9 0.0277856 
r130 322 9 3 
.ends

.subckt PM_PT3T03%U17_ngate2 90 100 105 112 179 184 189 195
c0 262 0 0.436412f
c1 253 0 0.533727f
c2 250 0 0.298875f
c3 249 0 1.14959f
c4 245 0 1.4886f
c5 244 0 1.14544f
c6 241 0 0.0625815f
c7 240 0 4.78597f
c8 236 0 4.16424f
c9 234 0 0.639802f
c10 224 0 0.140349f
c11 220 0 0.189195f
c12 203 0 0.533727f
c13 202 0 0.188377f
c14 199 0 0.606098f
c15 198 0 0.166949f
c16 197 0 0.603155f
c17 196 0 0.166325f
c18 195 0 3.04886f
c19 189 0 3.04886f
c20 184 0 3.04886f
c21 179 0 3.04886f
c22 144 0 0.311365f
c23 139 0 12.6297f
c24 129 0 0.684859f
c25 128 0 3.16673f
c26 123 0 3.11933f
c27 122 0 0.13299f
c28 120 0 0.0343464f
c29 117 0 0.0822206f
c30 116 0 0.237389f
c31 112 0 0.47622f
c32 110 0 0.0284138f
c33 109 0 0.038923f
c34 105 0 0.493703f
c35 100 0 1.53264f
c36 98 0 0.0691107f
c37 97 0 0.123067f
c38 95 0 0.672854f
c39 94 0 3.58736f
c40 90 0 2.22927f
c41 62 0 0.432063f
r42 247 249 0.0890938 
r43 247 266 1.5 
r44 246 250 0.110781 
r45 245 249 0.0868765 
r46 245 246 1.379 
r47 244 250 0.0239861 
r48 243 262 0.000487805 
r49 259 243 0.055122 
r50 242 244 0.0892583 
r51 242 243 1.5 
r52 240 250 0.110781 
r53 240 241 5.262 
r54 236 238 6 
r55 235 241 0.0458951 
r56 235 236 6.73067 
r57 234 238 0.708571 
r58 226 229 0.58625 
r59 224 226 0.0448391 
r60 224 225 0.0717241 
r61 220 222 6 
r62 219 234 0.0446983 
r63 219 220 0.254286 
r64 253 216 0.00142683 
r65 213 253 0.0277856 
r66 202 222 0.1025 
r67 199 253 5.05882 
r68 198 253 5.05882 
r69 197 203 5.05882 
r70 196 203 5.05882 
r71 191 199 3.88985 
r72 191 195 183.96 
r73 186 198 3.88985 
r74 186 189 183.96 
r75 181 197 3.88985 
r76 181 184 183.96 
r77 176 196 3.88985 
r78 176 179 183.96 
r79 143 144 0.245 
r80 202 143 0.04 
r81 129 232 0.742857 
r82 129 139 6 
r83 232 128 6 
r84 126 139 1.12267 
r85 229 126 6 
r86 123 229 2.98125 
r87 123 144 6 
r88 225 122 6 
r89 118 128 4.21429 
r90 117 122 0.0468966 
r91 120 112 0.545714 
r92 110 120 0.0464898 
r93 109 118 0.0464898 
r94 109 110 0.0430769 
r95 104 105 0.79 
r96 99 100 1.745 
r97 97 99 0.0451268 
r98 97 98 0.124211 
r99 96 116 0.0321994 
r100 95 104 0.0447517 
r101 95 96 0.647059 
r102 94 98 0.0451268 
r103 93 117 0.0448391 
r104 93 94 5.505 
r105 89 143 0.02 
r106 89 90 2.2575 
r107 88 116 0.010241 
r108 88 90 1.98 
r109 266 62 0.00195122 
r110 62 216 3 
r111 203 38 0.00142683 
r112 262 38 3 
r113 26 266 0.0536585 
r114 26 213 3 
r115 203 9 0.0277856 
r116 259 9 3 
.ends

.subckt PM_PT3T03%U29_ngate3 51 59 82 88
c0 131 0 0.429797f
c1 123 0 14.3516f
c2 117 0 0.533727f
c3 116 0 1.40245f
c4 113 0 0.0711574f
c5 112 0 8.05129f
c6 111 0 4.70292f
c7 108 0 0.22953f
c8 105 0 0.344858f
c9 100 0 2.68886f
c10 90 0 0.606155f
c11 89 0 0.167006f
c12 88 0 3.04886f
c13 82 0 3.04886f
c14 59 0 0.00729216f
c15 51 0 1.71143f
c16 44 0 3.2228f
r17 120 123 1.98933 
r18 114 116 0.119915 
r19 114 131 1.5 
r20 112 116 0.0867227 
r21 112 113 8.82 
r22 110 113 0.0447076 
r23 110 111 5.76615 
r24 120 108 6 
r25 106 108 6 
r26 105 111 0.0447914 
r27 105 106 0.273333 
r28 117 97 0.00142683 
r29 94 117 0.0277856 
r30 90 117 5.05882 
r31 89 117 5.05882 
r32 84 90 3.88985 
r33 84 88 183.96 
r34 79 89 3.88985 
r35 79 82 183.96 
r36 51 48 1.59714 
r37 100 48 6 
r38 45 103 3.29429 
r39 100 45 0.874286 
r40 45 123 6 
r41 44 59 4.93143 
r42 103 44 6 
r43 26 131 0.00341463 
r44 26 97 3 
r45 8 26 0.0556098 
r46 8 94 3 
.ends

.subckt PM_PT3T03%U29_U72_pgate 22 41 72 91 122 141 172 191 263 265 276 287 327
+ 333 338
c0 449 0 0.41464f
c1 446 0 0.306758f
c2 445 0 0.307529f
c3 444 0 0.307529f
c4 443 0 0.307529f
c5 442 0 3.43266f
c6 441 0 0.28749f
c7 440 0 0.30792f
c8 439 0 0.307529f
c9 437 0 6.27834f
c10 435 0 0.223302f
c11 433 0 0.150322f
c12 431 0 16.0103f
c13 422 0 5.78796f
c14 419 0 0.293407f
c15 418 0 0.309998f
c16 417 0 0.309607f
c17 415 0 6.27293f
c18 405 0 6.02825f
c19 403 0 0.514519f
c20 402 0 0.0958576f
c21 401 0 0.212915f
c22 397 0 0.775133f
c23 388 0 0.0612176f
c24 387 0 0.0386035f
c25 386 0 5.23858f
c26 377 0 0.730208f
c27 370 0 0.146254f
c28 369 0 0.0574345f
c29 364 0 0.0940331f
c30 360 0 0.0235939f
c31 359 0 0.0407452f
c32 357 0 0.0715626f
c33 354 0 2.24848f
c34 352 0 0.0604304f
c35 351 0 0.337211f
c36 345 0 0.0511886f
c37 342 0 0.326229f
c38 338 0 1.509f
c39 333 0 0.989059f
c40 331 0 0.0411298f
c41 330 0 0.375657f
c42 329 0 0.164607f
c43 327 0 1.51663f
c44 287 0 2.52523f
c45 281 0 1.55512f
c46 276 0 2.26271f
c47 274 0 0.0535543f
c48 273 0 0.401006f
c49 261 0 5.10206f
c50 252 0 4.80814f
c51 251 0 0.371977f
c52 245 0 0.405311f
c53 239 0 0.370539f
c54 185 0 0.309607f
c55 176 0 4.91766f
c56 174 0 0.105999f
c57 166 0 0.309607f
c58 157 0 4.91903f
c59 155 0 0.105999f
c60 135 0 0.309607f
c61 126 0 4.91903f
c62 124 0 0.105999f
c63 116 0 0.309607f
c64 107 0 4.92132f
c65 105 0 0.106492f
c66 76 0 4.88963f
c67 74 0 0.105999f
c68 57 0 4.91404f
c69 55 0 0.105999f
c70 26 0 4.91903f
c71 24 0 0.105999f
c72 7 0 4.99475f
c73 5 0 0.129475f
r74 446 447 0.32439 
r75 445 446 0.379902 
r76 444 445 0.32839 
r77 443 444 0.379902 
r78 442 443 0.0581463 
r79 441 442 0.270244 
r80 440 441 0.379902 
r81 439 440 0.32839 
r82 437 439 0.379902 
r83 431 433 6 
r84 418 419 0.38039 
r85 417 418 0.327902 
r86 415 417 0.38039 
r87 408 410 6 
r88 405 408 8.70933 
r89 405 433 6 
r90 401 410 0.0112 
r91 401 402 0.0514821 
r92 399 449 0.218537 
r93 447 399 0.165366 
r94 397 399 2 
r95 396 403 0.0142174 
r96 396 397 0.216585 
r97 387 403 0.0327344 
r98 387 388 0.149677 
r99 386 388 0.0446983 
r100 402 386 10.3252 
r101 382 435 6 
r102 379 431 3.36774 
r103 428 379 11.4052 
r104 377 379 6 
r105 377 382 1.15143 
r106 369 370 0.12 
r107 366 369 0.0451268 
r108 362 435 0.218571 
r109 361 364 0.0785714 
r110 361 362 0.02 
r111 353 364 0.02 
r112 353 354 3.30571 
r113 351 354 0.0461631 
r114 351 352 0.30026 
r115 346 360 0.0327921 
r116 345 360 0.0327921 
r117 344 352 0.0449793 
r118 344 345 0.0967164 
r119 343 359 0.0343218 
r120 342 360 0.00972501 
r121 342 343 0.514286 
r122 337 359 0.00843222 
r123 337 338 1.59625 
r124 332 357 0.0200702 
r125 332 333 1.20375 
r126 330 359 0.0343218 
r127 330 331 0.614603 
r128 329 357 0.0982456 
r129 328 331 0.0452323 
r130 328 329 0.395385 
r131 346 327 1.59625 
r132 287 284 2.3375 
r133 370 284 6 
r134 366 281 2.67 
r135 281 428 6 
r136 280 287 2.0425 
r137 275 276 2.0425 
r138 274 280 0.0446983 
r139 273 275 0.0446983 
r140 273 274 0.51 
r141 261 265 394.95 
r142 449 260 2.81176 
r143 260 261 1.5 
r144 252 263 394.95 
r145 251 447 2.74706 
r146 251 252 1.5 
r147 249 265 394.95 
r148 248 249 1.5 
r149 245 248 2.78235 
r150 242 245 0.38439 
r151 240 263 394.95 
r152 239 242 2.74706 
r153 239 240 1.5 
r154 185 242 0.323902 
r155 177 446 2.07647 
r156 176 191 394.95 
r157 176 177 4.2601 
r158 175 185 2.07647 
r159 174 191 394.95 
r160 174 175 4.2601 
r161 166 185 0.38039 
r162 422 166 0.171805 
r163 158 445 2.07647 
r164 157 172 394.95 
r165 157 158 4.2601 
r166 156 166 2.07647 
r167 155 172 394.95 
r168 155 156 4.2601 
r169 135 422 0.156098 
r170 127 444 2.07647 
r171 126 141 394.95 
r172 126 127 4.2601 
r173 125 135 2.07647 
r174 124 141 394.95 
r175 124 125 4.2601 
r176 116 135 0.38039 
r177 419 116 0.327902 
r178 108 443 2.07647 
r179 107 122 394.95 
r180 107 108 4.2601 
r181 106 116 2.07647 
r182 105 122 394.95 
r183 105 106 4.2601 
r184 77 441 2.07647 
r185 76 91 394.95 
r186 76 77 4.2601 
r187 75 419 2.07647 
r188 74 91 394.95 
r189 74 75 4.2601 
r190 58 440 2.07647 
r191 57 72 394.95 
r192 57 58 4.2601 
r193 56 418 2.07647 
r194 55 72 394.95 
r195 55 56 4.2601 
r196 27 439 2.07647 
r197 26 41 394.95 
r198 26 27 4.2601 
r199 25 417 2.07647 
r200 24 41 394.95 
r201 24 25 4.2601 
r202 8 437 2.07647 
r203 7 22 394.95 
r204 7 8 4.2601 
r205 6 415 2.07647 
r206 5 22 394.95 
r207 5 6 4.2601 
.ends

.subckt PM_PT3T03%U30_pgate 31 38 43 50 57 66 73 117 122 147 194 200
c0 216 0 2.86337f
c1 204 0 1.20506f
c2 200 0 0.00447021f
c3 194 0 0.00572036f
c4 183 0 15.9458f
c5 181 0 0.992437f
c6 178 0 0.785529f
c7 176 0 1.50192f
c8 172 0 1.4967f
c9 156 0 0.122651f
c10 152 0 2.00257f
c11 149 0 0.0565315f
c12 148 0 0.188493f
c13 147 0 0.00280858f
c14 122 0 0.00894832f
c15 117 0 0.00894832f
c16 100 0 0.860421f
c17 99 0 2.81447f
c18 96 0 0.803769f
c19 95 0 2.7979f
c20 92 0 1.45383f
c21 91 0 0.205618f
c22 89 0 0.301741f
c23 85 0 0.028277f
c24 83 0 0.028277f
c25 81 0 0.0264067f
c26 79 0 0.028277f
c27 78 0 0.0355056f
c28 73 0 1.42772f
c29 70 0 0.376335f
c30 66 0 1.38073f
c31 63 0 0.262147f
c32 61 0 0.444867f
c33 57 0 1.47614f
c34 54 0 0.290071f
c35 50 0 2.79305f
c36 48 0 0.0478882f
c37 47 0 0.289443f
c38 43 0 2.759f
c39 38 0 2.2191f
c40 36 0 0.0505388f
c41 35 0 0.332414f
c42 31 0 2.20074f
r43 212 213 0.636 
r44 211 212 0.190667 
r45 209 211 6.40533 
r46 186 216 6 
r47 213 183 3.63467 
r48 181 183 6 
r49 181 186 1.65857 
r50 178 204 6 
r51 176 200 1.43125 
r52 174 176 6 
r53 174 178 0.518356 
r54 172 194 1.4325 
r55 170 172 6 
r56 170 174 0.516164 
r57 156 159 0.0449572 
r58 156 157 0.0814286 
r59 151 216 3.87429 
r60 150 204 0.11625 
r61 149 150 0.0448998 
r62 148 151 0.0456127 
r63 148 149 0.183333 
r64 204 147 1.4375 
r65 100 168 1.4 
r66 100 213 6 
r67 99 122 4.4225 
r68 168 99 6 
r69 96 164 1.41 
r70 96 212 6 
r71 95 117 4.53 
r72 164 95 6 
r73 159 92 2.26625 
r74 92 211 6 
r75 157 91 6 
r76 152 89 6 
r77 152 86 2.26 
r78 86 209 6 
r79 84 122 1.3875 
r80 84 85 0.00880368 
r81 82 117 1.27 
r82 82 83 0.00880368 
r83 80 91 0.185 
r84 80 81 0.0373215 
r85 77 89 0.215 
r86 77 78 0.0302706 