* File: pc3t04.dist.sp.pex
* Created: Sun Jul  4 12:48:33 2010
* Program "Calibre xRC"
* Version "v2008.4_19.14"
* Nominal Temperature: 27C
* Circuit Temperature: 27C
* 
.subckt PM_PC3T04%net_m20_VSSO_res 45 64 71 76 83 118
c0 118 0 0.73297f
c1 115 0 0.40586f
c2 113 0 0.11193f
c3 97 0 0.0628754f
c4 87 0 0.2354f
c5 83 0 0.519409f
c6 81 0 0.240683f
c7 80 0 0.158208f
c8 76 0 0.519409f
c9 71 0 0.519409f
c10 69 0 0.170747f
c11 68 0 0.165025f
c12 64 0 0.733874f
c13 45 0 0.377454f
c14 44 0 0.20095f
c15 43 0 0.0479983f
c16 42 0 0.374599f
r17 113 115 0.0223492 
r18 110 113 0.129412 
r19 98 118 85 
r20 91 115 6.90667 
r21 90 92 5.17241 
r22 90 91 1.55172 
r23 89 90 11.1034 
r24 88 97 2.23066 
r25 87 98 3.37824 
r26 87 88 10.8571 
r27 82 97 0.93595 
r28 82 83 85 
r29 81 92 2.89655 
r30 80 97 2.23066 
r31 80 81 10.8571 
r32 75 92 1.55172 
r33 75 76 85 
r34 70 89 1.55172 
r35 70 71 85 
r36 68 89 2.89655 
r37 68 69 10.8571 
r38 63 69 3.37824 
r39 63 64 85 
r40 44 45 0.18 
r41 110 43 0.0446983 
r42 42 44 0.0446983 
r43 42 43 0.521176 
.ends

.subckt PM_PC3T04%VSS 813 858 880 904 909 921 923 928
c0 928 0 92.1621f
c1 921 0 55.2728f
c2 907 0 2.37329f
c3 904 0 0.00368951f
c4 901 0 1.24098f
c5 887 0 16.7205f
c6 876 0 1.88726f
c7 869 0 15.1025f
c8 855 0 1.45971f
c9 827 0 24.8267f
c10 825 0 0.0842555f
c11 824 0 10.3076f
c12 823 0 0.0657505f
c13 822 0 7.41172f
c14 820 0 0.184939f
c15 817 0 0.0372194f
c16 813 0 4.20605f
c17 810 0 0.144425f
c18 808 0 0.578389f
c19 801 0 8.75272f
c20 799 0 0.194438f
c21 798 0 0.100669f
c22 797 0 1.98794f
c23 692 0 2.21441f
c24 688 0 2.46807f
c25 684 0 1.3421f
c26 682 0 0.228409f
c27 680 0 0.276497f
c28 677 0 26.5984f
c29 672 0 0.814991f
c30 671 0 6.34069f
c31 665 0 2.0393f
c32 659 0 0.137389f
c33 658 0 2.48686f
c34 657 0 0.154374f
c35 656 0 2.24749f
c36 573 0 0.162892f
c37 571 0 0.72248f
c38 569 0 0.203897f
c39 544 0 2.94312f
c40 530 0 3.05957f
c41 528 0 0.031054f
c42 525 0 0.571035f
c43 524 0 6.91145f
c44 523 0 0.161087f
c45 508 0 3.75187f
c46 505 0 2.96391f
r47 923 926 0.000703354 
r48 919 921 0.00318245 
r49 918 919 0.00119641 
r50 917 918 0.0758524 
r51 916 917 0.0344168 
r52 915 916 0.167059 
r53 914 915 0.128574 
r54 913 914 0.0141176 
r55 912 913 0.089651 
r56 909 912 0.00438684 
r57 907 919 0.461538 
r58 901 904 1.28857 
r59 901 917 1.5 
r60 895 915 0.0535714 
r61 883 918 0.428571 
r62 880 883 0.189 
r63 878 928 0.000702051 
r64 926 878 0.0832563 
r65 876 878 0.131579 
r66 876 880 0.013 
r67 873 874 0.56934 
r68 872 873 1.12447 
r69 869 872 0.628223 
r70 869 916 0.3 
r71 861 912 0.428571 
r72 858 861 0.189 
r73 855 858 0.013 
r74 855 926 0.131579 
r75 826 849 0.02 
r76 826 827 0.9662 
r77 824 825 0.0338756 
r78 822 895 2.8715 
r79 822 823 0.0338756 
r80 816 825 0.0338756 
r81 815 823 0.0338756 
r82 813 899 2.59036 
r83 897 813 1.07807 
r84 887 813 1.4815 
r85 812 825 0.00880368 
r86 812 813 0.958 
r87 811 823 0.00880368 
r88 811 813 0.986 
r89 820 810 0.0632911 
r90 810 808 0.0574488 
r91 807 817 0.0448201 
r92 804 907 1.518 
r93 803 907 0.426 
r94 801 899 1.08482 
r95 799 897 1.06072 
r96 798 887 1.622 
r97 797 798 0.0448201 
r98 797 807 2.13041 
r99 824 694 0.733 
r100 813 694 1.93 
r101 692 837 3 
r102 689 895 1.612 
r103 817 689 1.283 
r104 689 914 1.5 
r105 897 688 1 
r106 837 684 0.24 
r107 873 684 1.5 
r108 694 682 3 
r109 872 682 3 
r110 680 899 3 
r111 874 680 3 
r112 677 866 1.1314 
r113 677 913 0.125 
r114 676 688 0.0075 
r115 849 676 0.056 
r116 866 676 0.24 
r117 674 820 0.0155975 
r118 827 674 1 
r119 672 816 0.5005 
r120 804 672 0.0446983 
r121 671 815 0.5005 
r122 803 671 0.0446983 
r123 670 692 0.830244 
r124 669 692 0.573659 
r125 664 665 1.37048 
r126 659 670 0.0448242 
r127 659 660 0.678222 
r128 658 665 0.0447675 
r129 658 660 0.650667 
r130 657 669 0.0446983 
r131 656 664 0.0447067 
r132 656 657 1.45854 
r133 572 573 0.147619 
r134 568 569 0.14988 
r135 801 568 0.0380723 
r136 565 567 0.143333 
r137 799 564 0.0385542 
r138 562 564 0.14506 
r139 813 561 0.159 
r140 544 813 0.159 
r141 543 573 0.02 
r142 543 561 1.247 
r143 542 569 0.02 
r144 542 544 1.243 
r145 813 541 0.192 
r146 539 813 0.192 
r147 538 539 0.342 
r148 813 538 0.192 
r149 536 813 0.192 
r150 535 536 0.342 
r151 813 535 0.192 
r152 533 813 0.192 
r153 532 533 0.342 
r154 813 532 0.192 
r155 530 813 0.192 
r156 529 572 0.02 
r157 529 541 1.214 
r158 528 571 0.04 
r159 528 530 0.243 
r160 526 568 0.02 
r161 526 571 0.938734 
r162 674 525 0.102486 
r163 524 572 0.0380952 
r164 524 525 4.80524 
r165 523 808 0.555238 
r166 523 567 0.0380952 
r167 813 519 0.159 
r168 517 813 0.159 
r169 516 517 0.408 
r170 813 516 0.159 
r171 514 813 0.159 
r172 513 514 0.408 
r173 813 513 0.159 
r174 511 813 0.159 
r175 510 511 0.408 
r176 813 510 0.159 
r177 508 813 0.159 
r178 507 567 0.02 
r179 507 519 1.247 
r180 506 564 0.02 
r181 506 508 1.243 
r182 505 565 0.02 
r183 504 562 0.02 
r184 504 505 4.69271 
.ends

.subckt PM_PC3T04%U28_U42_r1 93 98 140 145 152
c0 234 0 0.100654f
c1 232 0 0.446388f
c2 227 0 0.44555f
c3 222 0 0.346018f
c4 218 0 2.82383f
c5 213 0 0.141582f
c6 210 0 0.240204f
c7 209 0 0.428641f
c8 207 0 0.232617f
c9 205 0 0.0831055f
c10 204 0 0.333776f
c11 201 0 6.43541f
c12 198 0 0.725256f
c13 194 0 1.50583f
c14 193 0 0.725256f
c15 186 0 3.30165f
c16 185 0 0.0777466f
c17 184 0 10.3263f
c18 182 0 0.472173f
c19 180 0 0.408756f
c20 177 0 0.140416f
c21 172 0 0.0742904f
c22 169 0 0.0630044f
c23 161 0 0.171215f
c24 153 0 0.535761f
c25 152 0 0.278026f
c26 148 0 0.609289f
c27 147 0 0.168829f
c28 145 0 3.04886f
c29 140 0 3.04886f
c30 108 0 0.972447f
c31 98 0 3.04886f
c32 97 0 0.168893f
c33 93 0 3.04886f
c34 92 0 0.170554f
r35 211 213 0.1472 
r36 209 213 0.02 
r37 208 209 0.747936 
r38 206 211 0.02 
r39 206 207 0.405333 
r40 204 207 0.0446983 
r41 204 205 0.314667 
r42 201 234 6 
r43 199 205 0.0446983 
r44 199 201 7.00667 
r45 197 232 0.000487805 
r46 229 197 0.055122 
r47 196 198 0.0728393 
r48 196 197 1.5 
r49 195 210 0.101494 
r50 194 198 0.0795789 
r51 194 195 1.466 
r52 193 210 0.0219246 
r53 192 227 0.00292683 
r54 224 192 0.0526829 
r55 191 193 0.0728393 
r56 191 192 1.5 
r57 188 222 3 
r58 186 210 0.101494 
r59 186 188 3.41 
r60 184 208 0.0482946 
r61 184 185 8.83231 
r62 180 182 6 
r63 179 185 0.0501405 
r64 179 180 0.594286 
r65 175 234 0.0490323 
r66 174 177 0.157419 
r67 174 175 0.02 
r68 173 182 0.577143 
r69 172 222 0.261 
r70 172 173 0.0465329 
r71 169 218 6 
r72 167 177 0.02 
r73 167 169 0.0490323 
r74 166 218 3.99613 
r75 165 166 0.026898 
r76 161 165 0.10143 
r77 161 152 0.106667 
r78 148 153 5.05882 
r79 147 153 5.05882 
r80 142 148 3.88985 
r81 142 145 183.96 
r82 137 147 3.88985 
r83 137 140 183.96 
r84 103 108 5.05882 
r85 102 108 5.05882 
r86 97 103 3.88985 
r87 97 98 183.96 
r88 92 102 3.88985 
r89 92 93 183.96 
r90 153 63 0.00142683 
r91 227 63 3 
r92 108 52 0.00133393 
r93 229 52 3 
r94 34 108 0.0278113 
r95 232 34 3 
r96 153 9 0.0277856 
r97 224 9 3 
.ends

.subckt PM_PC3T04%VSSO 167 330 493 598 623 625 661 941 945 952 981 988 1000
+ 1011 1013 1018 1023 1029 1035 1041 1047 1056 1062 1068 1074 1080 1089 1095 1101
+ 1107 1119 1174 1180 1184 1190
c0 1190 0 31.9347f
c1 1177 0 1.98471f
c2 1174 0 46.2085f
c3 1154 0 7.95483f
c4 1152 0 6.9835f
c5 1146 0 6.97074f
c6 1141 0 6.97241f
c7 1135 0 6.97348f
c8 1130 0 6.97543f
c9 1119 0 0.00189383f
c10 1114 0 8.95235f
c11 1107 0 0.342408f
c12 1101 0 1.36597f
c13 1095 0 1.40025f
c14 1080 0 1.35721f
c15 1074 0 1.35624f
c16 1068 0 1.34294f
c17 1062 0 1.10092f
c18 1047 0 1.80865f
c19 1041 0 0.838722f
c20 1035 0 1.38238f
c21 1029 0 1.3086f
c22 1023 0 1.55632f
c23 1018 0 1.69055f
c24 1016 0 2.28529f
c25 1011 0 8.25608e-19
c26 1009 0 8.96457f
c27 998 0 7.90632f
c28 994 0 1.27875f
c29 984 0 1.65699f
c30 981 0 58.4722f
c31 948 0 1.3481f
c32 945 0 10.6731f
c33 932 0 0.112203f
c34 931 0 0.0401513f
c35 930 0 1.53621f
c36 928 0 0.0510217f
c37 927 0 0.330224f
c38 926 0 0.675001f
c39 917 0 5.32849f
c40 913 0 0.708327f
c41 911 0 3.2621f
c42 909 0 0.383003f
c43 908 0 0.713156f
c44 907 0 0.305458f
c45 906 0 3.26982f
c46 905 0 0.383249f
c47 904 0 0.0465497f
c48 903 0 0.185024f
c49 902 0 0.322687f
c50 872 0 0.122915f
c51 871 0 8.99123f
c52 841 0 0.284424f
c53 837 0 7.03694f
c54 833 0 0.146306f
c55 665 0 0.111455f
c56 661 0 0.401387f
c57 645 0 0.881365f
c58 643 0 0.101664f
c59 641 0 0.228551f
c60 639 0 1.44175f
c61 638 0 0.0306886f
c62 637 0 0.346472f
c63 625 0 0.765462f
c64 623 0 0.34681f
c65 622 0 0.192908f
c66 619 0 0.0481945f
c67 618 0 0.43737f
c68 598 0 0.114597f
c69 591 0 0.121434f
c70 506 0 6.69178f
c71 408 0 14.0344f
c72 358 0 14.0436f
c73 245 0 14.0378f
c74 195 0 14.0362f
c75 32 0 14.0395f
c76 10 0 0.146306f
r77 1188 1190 0.00282778 
r78 1187 1188 0.355444 
r79 1184 1187 0.00283333 
r80 1179 1181 0.0106667 
r81 1179 1180 0.02 
r82 1177 1179 0.0143333 
r83 1171 1172 0.166203 
r84 1170 1171 0.0396791 
r85 1169 1170 0.043262 
r86 1168 1169 0.0347594 
r87 1167 1168 0.0198396 
r88 1166 1167 0.0750802 
r89 1165 1166 0.0253476 
r90 1164 1165 0.028877 
r91 1163 1164 0.0373797 
r92 1162 1163 0.0226738 
r93 1161 1162 0.0226203 
r94 1160 1161 0.0203209 
r95 1159 1160 0.0213904 
r96 1158 1177 0.02 
r97 1158 1159 0.0720856 
r98 1123 1124 0.0140639 
r99 1118 1119 0.0126606 
r100 1154 1116 0.0113761 
r101 1114 1116 0.0638298 
r102 1111 1172 2 
r103 1107 1111 0.000380952 
r104 1104 1171 0.6 
r105 1101 1104 0.285 
r106 1098 1170 0.6 
r107 1095 1098 0.32 
r108 1083 1169 0.6 
r109 1080 1083 0.36 
r110 1077 1168 0.6 
r111 1074 1077 0.37 
r112 1071 1166 0.6 
r113 1068 1071 0.3225 
r114 1065 1165 0.6 
r115 1062 1065 0.325 
r116 1050 1164 0.6 
r117 1047 1050 0.3425 
r118 1044 1163 0.75 
r119 1041 1044 0.04 
r120 1038 1162 0.6 
r121 1035 1038 0.365 
r122 1032 1161 0.6 
r123 1029 1032 0.194286 
r124 1026 1160 0.6 
r125 1023 1026 0.3175 
r126 1020 1159 0.666667 
r127 1018 1020 0.96 
r128 1011 1118 0.013211 
r129 1114 1011 0.000917431 
r130 1009 1011 0.000913242 
r131 1009 1123 0.0638298 
r132 999 1000 0.02 
r133 998 1123 0.0113242 
r134 996 998 0.0327869 
r135 996 999 0.0166784 
r136 994 996 0.029258 
r137 991 1188 0.357143 
r138 988 991 0.21 
r139 986 1174 0.00544385 
r140 1172 986 0.0345455 
r141 984 986 1 
r142 984 988 0.445 
r143 979 981 0.00612761 
r144 979 1154 0.0327869 
r145 1148 977 0.00301483 
r146 977 1152 0.00301741 
r147 975 977 0.0266667 
r148 975 979 0.0287785 
r149 1089 974 0.130435 
r150 974 1146 0.00301741 
r151 1143 974 0.00301741 
r152 972 974 0.0266667 
r153 972 975 0.0242129 
r154 1137 971 0.00301483 
r155 971 1141 0.00301741 
r156 969 971 0.0266667 
r157 969 972 0.0242129 
r158 968 969 0.000615582 
r159 1056 967 0.130435 
r160 967 1135 0.00301741 
r161 1132 967 0.00301741 
r162 965 967 0.0266667 
r163 965 968 0.0235973 
r164 1126 964 0.00301483 
r165 964 1130 0.00301741 
r166 962 964 0.0266667 
r167 962 965 0.0242129 
r168 961 994 0.02 
r169 961 962 0.0277012 
r170 999 958 0.429445 
r171 955 1187 0.357143 
r172 952 955 0.21 
r173 950 1183 0.144409 
r174 1181 950 0.034 
r175 948 950 1 
r176 948 952 0.445 
r177 931 932 0.1275 
r178 930 931 0.0448391 
r179 929 930 2.75862 
r180 927 929 0.044715 
r181 927 928 0.466667 
r182 926 928 0.0450432 
r183 1183 926 1.29371 
r184 921 1016 6 
r185 918 921 0.784211 
r186 917 938 0.00736842 
r187 917 921 6.43579 
r188 915 1119 0.230275 
r189 913 1114 0.210275 
r190 912 1016 3.40429 
r191 910 1013 0.229041 
r192 910 911 0.0863581 
r193 908 1009 0.209132 
r194 908 909 0.0863581 
r195 915 906 0.0861375 
r196 906 907 0.132033 
r197 913 905 0.0861375 
r198 903 912 0.0446983 
r199 903 904 0.311429 
r200 902 904 0.0449572 
r201 872 1011 0.128 
r202 871 907 0.0473573 
r203 871 1011 0.126 
r204 841 872 0.0473573 
r205 911 841 0.132033 
r206 837 1011 0.126 
r207 836 1018 1.1475 
r208 834 1011 0.128 
r209 833 834 0.0473573 
r210 833 909 0.250407 
r211 665 647 0.00693642 
r212 938 647 6 
r213 1167 645 0.75 
r214 932 643 3 
r215 661 641 0.0610526 
r216 918 641 2 
r217 638 645 0.437895 
r218 638 639 0.0407126 
r219 836 637 0.0338756 
r220 624 665 0.0225434 
r221 624 625 1.14783 
r222 622 623 0.221176 
r223 618 622 0.0446983 
r224 618 619 0.608235 
r225 616 619 0.0446983 
r226 616 639 2.01647 
r227 597 637 0.00880368 
r228 597 598 0.1375 
r229 591 902 0.565 
r230 591 643 0.0265396 
r231 509 945 0.0419737 
r232 941 509 0.0413851 
r233 968 509 0.00128205 
r234 958 506 2.21804 
r235 506 1181 0.6 
r236 977 493 0.130435 
r237 1089 408 0.00313778 
r238 1146 408 0.0652174 
r239 493 398 0.0031351 
r240 1148 398 0.0652174 
r241 358 493 0.00314046 
r242 1152 358 0.0652174 
r243 1116 347 0.0141284 
r244 347 1118 0.0652174 
r245 971 330 0.130435 
r246 1056 245 0.00313778 
r247 1135 245 0.0652174 
r248 330 235 0.0031351 
r249 1137 235 0.0652174 
r250 195 330 0.00314046 
r251 1141 195 0.0652174 
r252 185 1089 0.00313778 
r253 1143 185 0.0652174 
r254 964 167 0.130435 
r255 82 1013 0.0126027 
r256 1011 82 0.0131507 
r257 1124 82 0.0652174 
r258 167 72 0.0031351 
r259 1126 72 0.0652174 
r260 32 167 0.00314046 
r261 1130 32 0.0652174 
r262 22 1056 0.00313778 
r263 1132 22 0.0652174 
r264 10 905 0.250407 
r265 10 837 0.0473573 
.ends

.subckt PM_PC3T04%U28_U72_pgate 22 41 72 91 122 141 209 211 238 249 285 291 296
c0 423 0 0.414046f
c1 420 0 0.306758f
c2 418 0 0.307529f
c3 417 0 0.307529f
c4 415 0 0.307529f
c5 414 0 0.28749f
c6 411 0 4.75712f
c7 409 0 0.219869f
c8 407 0 0.150262f
c9 405 0 15.9991f
c10 383 0 0.101609f
c11 379 0 5.928f
c12 377 0 2.03718f
c13 373 0 3.86527f
c14 370 0 0.0347659f
c15 365 0 0.831484f
c16 355 0 3.00169f
c17 353 0 0.0612176f
c18 352 0 0.0386035f
c19 344 0 0.730208f
c20 331 0 4.59927f
c21 328 0 0.146501f
c22 327 0 0.0572348f
c23 322 0 0.0938002f
c24 318 0 0.0256146f
c25 317 0 0.0466741f
c26 315 0 0.0747429f
c27 312 0 2.26342f
c28 310 0 0.0584785f
c29 309 0 0.358339f
c30 303 0 0.0477113f
c31 300 0 0.329841f
c32 296 0 1.50772f
c33 291 0 0.973496f
c34 289 0 0.0415798f
c35 288 0 0.375008f
c36 287 0 0.161952f
c37 285 0 1.51477f
c38 249 0 2.52503f
c39 243 0 1.55677f
c40 238 0 2.26197f
c41 236 0 0.0535543f
c42 235 0 0.401006f
c43 207 0 5.10206f
c44 198 0 4.80814f
c45 197 0 0.371977f
c46 191 0 0.405378f
c47 185 0 0.370539f
c48 135 0 0.309607f
c49 126 0 4.91766f
c50 124 0 0.105999f
c51 116 0 0.309607f
c52 107 0 4.91903f
c53 105 0 0.105999f
c54 85 0 0.309607f
c55 76 0 4.91903f
c56 74 0 0.105999f
c57 66 0 0.309607f
c58 57 0 4.92132f
c59 55 0 0.106492f
c60 35 0 0.293407f
c61 26 0 4.88963f
c62 24 0 0.105999f
c63 16 0 4.85834f
c64 7 0 4.97021f
c65 5 0 0.112859f
r66 420 421 0.32439 
r67 417 418 0.32839 
r68 414 415 0.32839 
r69 405 407 6 
r70 381 383 0.0341463 
r71 377 379 6 
r72 376 383 0.02 
r73 376 377 3.54667 
r74 373 407 6 
r75 371 381 0.02 
r76 371 373 5.05333 
r77 369 379 10.4077 
r78 368 423 0.219512 
r79 421 368 0.16439 
r80 366 368 6 
r81 365 370 0.0142174 
r82 365 366 0.21561 
r83 364 420 0.219512 
r84 418 364 0.16039 
r85 362 364 6 
r86 361 417 0.219512 
r87 415 361 0.16039 
r88 359 361 6 
r89 359 362 0.708293 
r90 357 414 0.219512 
r91 411 357 0.16039 
r92 355 357 6 
r93 355 359 0.708293 
r94 354 370 0.0142174 
r95 354 362 0.462439 
r96 353 369 0.0446983 
r97 352 370 0.0327344 
r98 352 353 0.149677 
r99 349 409 6 
r100 346 405 3.37032 
r101 402 346 11.4052 
r102 344 346 6 
r103 344 349 1.15143 
r104 341 399 6 
r105 338 341 0.708293 
r106 338 396 6 
r107 335 338 0.708293 
r108 335 393 6 
r109 331 335 0.708293 
r110 331 390 6 
r111 327 328 0.12 
r112 324 327 0.0451268 
r113 320 409 0.211429 
r114 319 322 0.0785714 
r115 319 320 0.02 
r116 311 322 0.02 
r117 311 312 3.31571 
r118 309 312 0.0461631 
r119 309 310 0.30026 
r120 304 318 0.0327921 
r121 303 318 0.0327921 
r122 302 310 0.0449793 
r123 302 303 0.0943284 
r124 301 317 0.0343218 
r125 300 318 0.00972501 
r126 300 301 0.514286 
r127 295 317 0.00843222 
r128 295 296 1.59625 
r129 290 315 0.0200702 
r130 290 291 1.20375 
r131 288 317 0.0343218 
r132 288 289 0.614603 
r133 287 315 0.0982456 
r134 286 289 0.0452323 
r135 286 287 0.395385 
r136 304 285 1.59625 
r137 249 246 2.3375 
r138 328 246 6 
r139 324 243 2.67 
r140 243 402 6 
r141 242 249 2.0425 
r142 237 238 2.0425 
r143 236 242 0.0446983 
r144 235 237 0.0446983 
r145 235 236 0.51 
r146 207 211 394.95 
r147 423 206 2.81176 
r148 206 207 1.5 
r149 198 209 394.95 
r150 197 421 2.74706 
r151 197 198 1.5 
r152 195 211 394.95 
r153 194 195 1.5 
r154 399 191 0.219512 
r155 191 194 2.78235 
r156 188 399 0.164878 
r157 186 209 394.95 
r158 185 188 2.74706 
r159 185 186 1.5 
r160 135 188 0.323902 
r161 396 135 0.219512 
r162 127 420 2.07647 
r163 126 141 394.95 
r164 126 127 4.2601 
r165 125 135 2.07647 
r166 124 141 394.95 
r167 124 125 4.2601 
r168 116 396 0.160878 
r169 108 418 2.07647 
r170 107 122 394.95 
r171 107 108 4.2601 
r172 106 116 2.07647 
r173 105 122 394.95 
r174 105 106 4.2601 
r175 85 116 0.327902 
r176 393 85 0.219512 
r177 77 417 2.07647 
r178 76 91 394.95 
r179 76 77 4.2601 
r180 75 85 2.07647 
r181 74 91 394.95 
r182 74 75 4.2601 
r183 66 393 0.160878 
r184 58 415 2.07647 
r185 57 72 394.95 
r186 57 58 4.2601 
r187 56 66 2.07647 
r188 55 72 394.95 
r189 55 56 4.2601 
r190 35 66 0.327902 
r191 390 35 0.219512 
r192 27 414 2.07647 
r193 26 41 394.95 
r194 26 27 4.2601 
r195 25 35 2.07647 
r196 24 41 394.95 
r197 24 25 4.2601 
r198 16 390 0.160878 
r199 8 411 2.07647 
r200 7 22 394.95 
r201 7 8 4.2601 
r202 6 16 2.07647 
r203 5 22 394.95 
r204 5 6 4.2601 
.ends

.subckt PM_PC3T04%U15_pgate 31 38 43 50 57 68 73 113 118 141 187 193
c0 208 0 2.83787f
c1 197 0 1.22653f
c2 193 0 0.00447021f
c3 187 0 0.00572036f
c4 176 0 15.9246f
c5 174 0 0.992437f
c6 171 0 0.79188f
c7 169 0 1.50044f
c8 165 0 1.49712f
c9 158 0 0.0544354f
c10 157 0 0.281237f
c11 151 0 0.994811f
c12 146 0 1.96268f
c13 143 0 0.0652275f
c14 142 0 0.199875f
c15 141 0 0.00280858f
c16 118 0 0.00894832f
c17 113 0 0.00924659f
c18 99 0 2.78611f
c19 96 0 1.17019f
c20 94 0 0.712525f
c21 93 0 2.5367f
c22 89 0 0.302477f
c23 85 0 0.028277f
c24 83 0 0.028277f
c25 81 0 0.0289103f
c26 80 0 0.232744f
c27 79 0 0.028277f
c28 78 0 0.0303624f
c29 73 0 1.45777f
c30 68 0 1.39196f
c31 65 0 0.344617f
c32 63 0 0.102424f
c33 61 0 0.45127f
c34 57 0 1.4976f
c35 54 0 0.287058f
c36 50 0 2.85917f
c37 48 0 0.0465599f
c38 47 0 0.286924f
c39 43 0 2.27371f
c40 38 0 2.21979f
c41 36 0 0.0505388f
c42 35 0 0.327211f
c43 31 0 2.20083f
r44 204 205 0.336 
r45 202 204 6.17867 
r46 179 208 6 
r47 205 176 4.352 
r48 174 176 6 
r49 174 179 1.65857 
r50 171 197 6 
r51 169 193 1.43125 
r52 167 169 6 
r53 167 171 0.518356 
r54 165 187 1.4325 
r55 163 165 6 
r56 163 167 0.516164 
r57 157 159 0.0446983 
r58 157 158 0.2925 
r59 150 158 0.0446983 
r60 150 151 1.63125 
r61 145 208 3.82571 
r62 144 197 0.15875 
r63 143 144 0.0448998 
r64 142 145 0.0456127 
r65 142 143 0.183333 
r66 197 141 1.4375 
r67 99 118 4.4175 
r68 161 99 6 
r69 96 161 1.405 
r70 159 96 0.58875 
r71 96 205 6 
r72 94 155 1.395 
r73 94 204 6 
r74 93 113 4.545 
r75 155 93 6 
r76 151 91 6 
r77 146 89 6 
r78 146 86 2.26 
r79 86 202 6 
r80 84 118 1.3875 
r81 84 85 0.00880368 
r82 82 113 1.27 
r83 82 83 0.00880368 
r84 80 91 0.116143 
r85 80 81 0.0327397 
r86 77 89 0.215 
r87 77 78 0.0302706 
r88 72 73 1.3875 
r89 67 68 1.3625 
r90 66 85 0.0338756 
r91 65 72 0.0446983 
r92 65 66 0.51 
r93 64 83 0.0338756 
r94 63 85 0.0338756 
r95 63 64 0.2325 
r96 62 81 0.00977027 
r97 61 67 0.0448998 
r98 61 62 0.428889 
r99 56 81 0.0327397 
r100 56 57 1.3625 
r101 55 79 0.0338756 
r102 54 83 0.0338756 
r103 54 55 0.51 
r104 49 79 0.00880368 
r105 49 50 2.485 
r106 47 79 0.0338756 
r107 47 48 0.51 
r108 42 48 0.0446983 
r109 42 43 2.485 
r110 37 78 0.0302706 
r111 37 38 2.06 
r112 35 78 0.0119838 
r113 35 36 0.585714 
r114 30 36 0.0449572 
r115 30 31 2.06 
.ends

.subckt PM_PC3T04%U15_ngate 68 73 130 137 144 151 159 167 203 205 250
c0 314 0 0.484859f
c1 309 0 0.326587f
c2 302 0 16.5429f
c3 293 0 0.320367f
c4 288 0 0.680969f
c5 287 0 0.130703f
c6 285 0 1.24608f
c7 284 0 0.344678f
c8 281 0 0.0917297f
c9 280 0 0.0837332f
c10 278 0 0.229383f
c11 276 0 7.56618f
c12 273 0 0.102223f
c13 259 0 2.97167f
c14 251 0 0.56566f
c15 250 0 3.10575f
c16 213 0 0.431365f
c17 205 0 0.59549f
c18 203 0 0.830815f
c19 200 0 0.149707f
c20 197 0 0.145613f
c21 188 0 0.136145f
c22 185 0 1.32175f
c23 184 0 0.135905f
c24 181 0 0.81449f
c25 176 0 3.13577f
c26 174 0 0.0377296f
c27 173 0 0.0461791f
c28 172 0 0.026249f
c29 171 0 0.0265254f
c30 167 0 0.972934f
c31 164 0 0.128798f
c32 163 0 1.65257f
c33 159 0 1.35951f
c34 156 0 0.0804526f
c35 155 0 0.252089f
c36 151 0 1.33816f
c37 148 0 0.347867f
c38 144 0 1.42004f
c39 141 0 0.250739f
c40 137 0 1.459f
c41 135 0 0.050558f
c42 134 0 0.292203f
c43 130 0 1.4302f
c44 83 0 0.975367f
c45 73 0 3.04886f
c46 72 0 0.169665f
c47 68 0 3.04886f
c48 67 0 0.170596f
r49 301 302 0.397333 
r50 300 301 5.432 
r51 297 300 1.92533 
r52 290 314 0.00536585 
r53 311 290 0.0502439 
r54 288 290 1.5 
r55 286 287 0.0738001 
r56 288 285 0.1137 
r57 285 286 1.478 
r58 284 287 0.01351 
r59 282 284 0.0637956 
r60 282 309 3 
r61 280 287 0.0738001 
r62 280 281 0.089 
r63 297 278 6 
r64 276 278 6 
r65 275 281 0.0446983 
r66 275 276 6.712 
r67 271 273 0.0755556 
r68 264 271 0.02 
r69 293 256 0.00142683 
r70 251 293 1.85294 
r71 246 251 3.88985 
r72 246 250 183.96 
r73 200 205 60 
r74 200 220 3.77986 
r75 197 203 85 
r76 197 213 3.53757 
r77 188 226 0.0370021 
r78 273 188 6 
r79 185 269 2.59143 
r80 185 302 6 
r81 269 184 6 
r82 264 181 1.53143 
r83 181 301 6 
r84 213 180 0.3325 
r85 259 180 6 
r86 177 262 2.2825 
r87 259 177 1.32 
r88 177 300 6 
r89 176 220 3.7825 
r90 262 176 6 
r91 173 184 0.0613333 
r92 166 167 1.2375 
r93 165 174 0.0310989 
r94 164 166 0.044713 
r95 164 165 0.152258 
r96 163 174 0.0112231 
r97 162 173 0.0447675 
r98 162 163 3.52 
r99 226 159 1.6275 
r100 157 159 1.28 
r101 155 174 0.0310989 
r102 155 156 0.301935 
r103 150 156 0.044713 
r104 150 151 1.2375 
r105 149 172 0.0338756 
r106 148 157 0.0446983 
r107 148 149 0.51 
r108 143 172 0.00880368 
r109 143 144 1.28 
r110 142 171 0.0338756 
r111 141 172 0.0338756 
r112 141 142 0.43 
r113 136 171 0.00880368 
r114 136 137 1.415 
r115 134 171 0.0338756 
r116 134 135 0.51 
r117 129 135 0.0446983 
r118 129 130 1.415 
r119 78 83 5.05882 
r120 77 83 5.05882 
r121 72 78 3.88985 
r122 72 73 183.96 
r123 67 77 3.88985 
r124 67 68 183.96 
r125 37 309 0.0521951 
r126 37 256 3 
r127 83 27 0.00133393 
r128 311 27 3 
r129 9 83 0.0278113 
r130 314 9 3 
.ends

.subckt PM_PC3T04%U28_ngate3 65 73 96 102
c0 135 0 14.3636f
c1 129 0 0.536496f
c2 128 0 0.995288f
c3 125 0 0.0883956f
c4 124 0 6.98104f
c5 122 0 0.170561f
c6 120 0 6.43826f
c7 114 0 2.68849f
c8 104 0 0.609346f
c9 103 0 0.170197f
c10 102 0 3.04886f
c11 96 0 3.04886f
c12 73 0 0.00729216f
c13 65 0 1.71074f
c14 58 0 3.22325f
c15 33 0 0.453414f
r16 132 135 2.05733 
r17 126 128 0.117494 
r18 126 142 1.5 
r19 124 128 0.0773451 
r20 124 125 7.322 
r21 132 122 6 
r22 120 122 6 
r23 119 125 0.0446983 
r24 119 120 5.832 
r25 129 111 0.00142683 
r26 108 129 0.0277856 
r27 104 129 5.05882 
r28 103 129 5.05882 
r29 98 104 3.88985 
r30 98 102 183.96 
r31 93 103 3.88985 
r32 93 96 183.96 
r33 65 62 1.59714 
r34 114 62 6 
r35 59 117 3.29429 
r36 114 59 0.874286 
r37 59 135 6 
r38 58 73 4.93143 
r39 117 58 6 
r40 142 33 0.00195122 
r41 33 111 3 
r42 8 142 0.0536585 
r43 8 108 3 
.ends

.subckt PM_PC3T04%U17_ngate2 68 73 114 124 129 136 188
c0 230 0 0.715367f
c1 229 0 0.428616f
c2 225 0 1.4818f
c3 222 0 1.02996f
c4 221 0 0.223167f
c5 220 0 0.0802552f
c6 219 0 8.35486f
c7 215 0 4.24947f
c8 213 0 0.525112f
c9 203 0 0.140355f
c10 199 0 0.173229f
c11 191 0 0.192586f
c12 189 0 0.161805f
c13 188 0 3.10683f
c14 168 0 0.31214f
c15 163 0 12.6294f
c16 153 0 0.698503f
c17 152 0 3.22327f
c18 147 0 3.09544f
c19 146 0 0.13299f
c20 144 0 0.0350488f
c21 141 0 0.0822206f
c22 140 0 0.237389f
c23 136 0 0.488667f
c24 134 0 0.0291631f
c25 133 0 0.0396114f
c26 129 0 0.493703f
c27 124 0 1.53216f
c28 122 0 0.0679196f
c29 121 0 0.119758f
c30 119 0 0.672854f
c31 118 0 3.58588f
c32 114 0 2.23045f
c33 80 0 0.974715f
c34 73 0 3.04886f
c35 72 0 0.169171f
c36 68 0 3.04886f
c37 67 0 0.161006f
c38 8 0 0.344578f
r39 235 237 0.0556098 
r40 237 229 0.000487805 
r41 228 229 1.5 
r42 225 240 3 
r43 223 228 0.0390471 
r44 223 225 0.986462 
r45 221 228 0.0253352 
r46 221 222 0.138032 
r47 219 222 0.0808781 
r48 219 220 9.006 
r49 215 217 6 
r50 214 220 0.0446983 
r51 214 215 4.868 
r52 213 217 0.550345 
r53 205 208 0.58625 
r54 203 205 0.0448391 
r55 203 204 0.0717241 
r56 199 201 6 
r57 198 213 0.0447026 
r58 198 199 0.185763 
r59 194 230 0.00142683 
r60 191 201 0.108017 
r61 189 230 1.85294 
r62 184 189 3.88985 
r63 184 188 183.96 
r64 167 168 0.245 
r65 191 167 0.04 
r66 153 211 0.742857 
r67 153 163 6 
r68 211 152 6 
r69 150 163 1.12267 
r70 208 150 6 
r71 147 208 2.98125 
r72 147 168 6 
r73 204 146 6 
r74 142 152 4.21429 
r75 141 146 0.0468966 
r76 144 136 0.545714 
r77 134 144 0.0464898 
r78 133 142 0.0464898 
r79 133 134 0.0430769 
r80 128 129 0.79 
r81 123 124 1.745 
r82 121 123 0.0451268 
r83 121 122 0.124211 
r84 120 140 0.0321994 
r85 119 128 0.0447517 
r86 119 120 0.647059 
r87 118 122 0.0451268 
r88 117 141 0.0448391 
r89 117 118 5.505 
r90 113 167 0.02 
r91 113 114 2.2575 
r92 112 140 0.010241 
r93 112 114 1.98 
r94 78 80 5.05882 
r95 77 80 5.05882 
r96 72 78 3.88985 
r97 72 73 183.96 
r98 67 77 3.88985 
r99 67 68 183.96 
r100 80 45 0.00133393 
r101 235 45 3 
r102 80 20 0.0278113 
r103 237 20 3 
r104 240 8 0.00341463 
r105 8 194 3 
.ends

.subckt PM_PC3T04%PAD 21 50 91 120 161 190 247 271 295 319 349 355 380 488 507
+ 514
c0 522 0 29.5227f
c1 515 0 83.4457f
c2 514 0 64.3341f
c3 511 0 159.215f
c4 506 0 0.991473f
c5 499 0 9.94862f
c6 494 0 14.0286f
c7 485 0 0.117887f
c8 482 0 213.226f
c9 468 0 15.3329f
c10 450 0 3.86761f
c11 381 0 128.276f
c12 380 0 1.04872f
c13 355 0 13.3722f
c14 349 0 13.3806f
c15 319 0 13.36f
c16 295 0 13.3725f
c17 271 0 13.6388f
c18 247 0 13.3788f
c19 212 0 7.52869f
c20 190 0 2.98542f
c21 173 0 6.78401f
c22 161 0 2.98075f
c23 144 0 6.78401f
c24 120 0 2.98462f
c25 103 0 6.78401f
c26 91 0 2.98542f
c27 74 0 6.78401f
c28 50 0 2.98366f
c29 33 0 6.78401f
c30 21 0 2.98462f
c31 4 0 6.78401f
r32 522 523 0.118407 
r33 521 522 0.118407 
r34 520 521 0.056883 
r35 519 520 0.061524 
r36 518 519 0.118407 
r37 517 518 0.0830354 
r38 516 517 0.0353716 
r39 514 515 0.0124825 
r40 512 514 0.000593149 
r41 511 512 0.0669731 
r42 506 507 0.00916 
r43 499 517 0.0545455 
r44 494 520 0.015 
r45 485 488 0.00916 
r46 485 506 2 
r47 481 494 0.0264274 
r48 481 482 0.147774 
r49 475 476 0.00752787 
r50 474 475 0.021023 
r51 472 474 0.000537705 
r52 472 511 0.00162999 
r53 470 472 0.000537705 
r54 468 470 0.0285508 
r55 459 506 0.1388 
r56 458 459 0.132996 
r57 457 458 0.0171733 
r58 456 457 0.0171733 
r59 455 456 0.0171733 
r60 454 455 0.0171733 
r61 453 454 0.0171733 
r62 450 499 0.202116 
r63 482 383 0.0288462 
r64 381 453 0.00818451 
r65 381 383 0.00646891 
r66 450 380 0.0147368 
r67 344 349 0.0072093 
r68 453 344 0.0566038 
r69 342 355 0.0072093 
r70 458 342 0.0566038 
r71 315 319 0.0072093 
r72 457 315 0.0566038 
r73 291 295 0.0072093 
r74 456 291 0.0566038 
r75 267 271 0.0072093 
r76 455 267 0.0566038 
r77 243 247 0.0072093 
r78 454 243 0.0566038 
r79 223 226 0.0022831 
r80 476 223 0.0375475 
r81 223 512 0.00547945 
r82 474 222 0.00210084 
r83 220 222 0.000537705 
r84 470 220 0.00210084 
r85 222 218 0.0105115 
r86 475 218 0.00712251 
r87 214 226 0.0187738 
r88 218 214 0.00376393 
r89 476 214 0.00712251 
r90 212 220 0.0142754 
r91 468 212 0.00356125 
r92 515 197 0.345778 
r93 196 522 0.0220132 
r94 196 197 0.319822 
r95 190 177 0.00249413 
r96 197 177 0.0425532 
r97 173 190 0.00249413 
r98 197 173 0.0425532 
r99 515 168 0.345778 
r100 167 523 0.0220132 
r101 167 168 0.319822 
r102 161 148 0.00249413 
r103 168 148 0.0425532 
r104 144 161 0.00249413 
r105 168 144 0.0425532 
r106 515 127 0.345778 
r107 126 519 0.0220132 
r108 126 127 0.319822 
r109 120 107 0.00249413 
r110 127 107 0.0425532 
r111 103 120 0.00249413 
r112 127 103 0.0425532 
r113 515 98 0.345778 
r114 97 521 0.0220132 
r115 97 98 0.319822 
r116 91 78 0.00249413 
r117 98 78 0.0425532 
r118 74 91 0.00249413 
r119 98 74 0.0425532 
r120 515 57 0.345778 
r121 56 516 0.0220132 
r122 56 57 0.319822 
r123 50 37 0.00249413 
r124 57 37 0.0425532 
r125 33 50 0.00249413 
r126 57 33 0.0425532 
r127 515 28 0.345778 
r128 27 518 0.0220132 
r129 27 28 0.319822 
r130 21 8 0.00249413 
r131 28 8 0.0425532 
r132 4 21 0.00249413 
r133 28 4 0.0425532 
.ends

.subckt PM_PC3T04%U28_U71_UN_P_TOP 18 37 94 96 111 120
c0 238 0 0.300654f
c1 226 0 0.325638f
c2 224 0 0.325638f
c3 223 0 0.337763f
c4 220 0 2.19222f
c5 218 0 0.309431f
c6 216 0 0.309431f
c7 215 0 0.309686f
c8 212 0 2.15885f
c9 210 0 0.230044f
c10 208 0 15.9583f
c11 206 0 0.210179f
c12 195 0 7.49122f
c13 192 0 0.754601f
c14 190 0 4.58953f
c15 184 0 0.138607f
c16 175 0 3.57997f
c17 172 0 1.1576f
c18 168 0 2.35245f
c19 161 0 2.0623f
c20 160 0 0.101314f
c21 156 0 0.839508f
c22 138 0 0.710406f
c23 135 0 0.4787f
c24 125 0 0.0747285f
c25 120 0 1.34671f
c26 113 0 0.0443925f
c27 112 0 0.161794f
c28 111 0 2.03276f
c29 89 0 5.08642f
c30 88 0 0.433603f
c31 59 0 4.93197f
c32 57 0 0.107211f
c33 55 0 0.128063f
c34 22 0 4.99788f
c35 20 0 0.127441f
c36 3 0 4.92483f
c37 1 0 0.105841f
r38 223 224 0.32839 
r39 215 216 0.327902 
r40 208 210 6 
r41 207 208 12.932 
r42 204 206 6 
r43 204 207 0.172 
r44 200 238 0.0366077 
r45 198 200 3 
r46 195 198 3.1885 
r47 195 210 6 
r48 190 192 6 
r49 189 190 8.48 
r50 186 206 6 
r51 184 189 0.0446983 
r52 184 186 0.12 
r53 182 192 1.15944 
r54 180 226 0.219512 
r55 224 180 0.16039 
r56 178 180 6 
r57 177 223 0.194146 
r58 220 177 0.189756 
r59 175 177 6 
r60 175 178 0.682927 
r61 174 175 0.763902 
r62 172 174 0.0447033 
r63 172 238 0.445714 
r64 166 218 0.219512 
r65 216 166 0.160878 
r66 164 166 6 
r67 163 215 0.218537 
r68 212 163 0.158049 
r69 161 163 6 
r70 161 164 0.716049 
r71 160 182 0.0536586 
r72 160 161 0.230123 
r73 168 135 6 
r74 168 132 2.5675 
r75 132 207 6 
r76 131 204 0.468 
r77 156 131 6 
r78 156 128 1.41429 
r79 128 138 6 
r80 126 125 0.08 
r81 125 135 0.41 
r82 124 138 1.23714 
r83 126 120 1.1475 
r84 113 124 0.0447675 