* File: pc3d21u.dist.sp.pex
* Created: Sun Jul  4 12:32:31 2010
* Program "Calibre xRC"
* Version "v2008.4_19.14"
* Nominal Temperature: 27C
* Circuit Temperature: 27C
* 
.subckt PM_PC3D21U%U14_padr 12 72 84 169 171 173 175 185 218
c0 291 0 16.0046f
c1 286 0 9.32193f
c2 277 0 15.7529f
c3 269 0 5.29967f
c4 265 0 5.64073f
c5 263 0 0.501133f
c6 261 0 0.0674659f
c7 260 0 0.207306f
c8 259 0 0.394066f
c9 255 0 0.103663f
c10 254 0 0.0311661f
c11 251 0 1.75852f
c12 241 0 2.33938f
c13 233 0 1.04978f
c14 227 0 0.588664f
c15 223 0 2.47636f
c16 222 0 0.253741f
c17 219 0 0.703354f
c18 218 0 0.853807f
c19 196 0 0.185532f
c20 185 0 1.32521f
c21 183 0 15.9692f
c22 175 0 0.512693f
c23 173 0 0.880169f
c24 171 0 0.731369f
c25 169 0 0.810351f
c26 138 0 0.113797f
c27 131 0 0.508135f
c28 126 0 0.549878f
c29 123 0 0.435871f
c30 116 0 0.0565332f
c31 115 0 0.0423217f
c32 114 0 0.0210049f
c33 113 0 0.136586f
c34 110 0 1.19772f
c35 108 0 0.582383f
c36 104 0 0.179402f
c37 103 0 0.056318f
c38 102 0 0.850612f
c39 100 0 0.0827426f
c40 98 0 0.0821544f
c41 96 0 0.0305993f
c42 95 0 0.112434f
c43 94 0 0.0396008f
c44 93 0 0.118389f
c45 90 0 0.156429f
c46 88 0 0.0362232f
c47 87 0 0.144751f
c48 84 0 1.39843f
c49 81 0 0.0553548f
c50 80 0 0.553112f
c51 79 0 0.0568446f
c52 78 0 0.610156f
c53 77 0 0.0421449f
c54 76 0 0.387555f
c55 72 0 1.72817f
c56 34 0 0.0702956f
c57 32 0 0.114202f
c58 29 0 0.0787491f
c59 19 0 0.104376f
c60 18 0 0.0302578f
c61 17 0 0.0479459f
c62 16 0 0.0834252f
c63 12 0 1.07645f
r64 291 279 0.172857 
r65 277 279 6 
r66 276 277 8.59067 
r67 269 291 2 
r68 267 269 10.3129 
r69 286 265 0.185079 
r70 263 265 1.2 
r71 262 263 0.482857 
r72 260 262 0.0446983 
r73 260 261 0.125714 
r74 259 261 0.0446983 
r75 254 255 0.0636735 
r76 250 254 0.0473078 
r77 238 239 6 
r78 235 276 2.89733 
r79 273 235 3.48933 
r80 233 235 6 
r81 233 238 0.8816 
r82 222 239 0.0840267 
r83 220 222 0.0448127 
r84 220 223 2.62845 
r85 219 286 0.18836 
r86 223 218 0.0773806 
r87 182 183 1.136 
r88 164 173 95.1667 
r89 147 169 95.6667 
r90 140 196 0.0671698 
r91 255 140 6 
r92 251 138 6 
r93 250 135 0.7375 
r94 251 135 2.8475 
r95 135 183 6 
r96 248 134 6 
r97 131 248 1.25 
r98 131 276 6 
r99 185 130 1.5325 
r100 241 130 6 
r101 127 244 0.7875 
r102 241 127 2.88 
r103 127 182 6 
r104 244 126 6 
r105 123 231 0.482667 
r106 123 273 6 
r107 122 182 5.42667 
r108 231 122 6 
r109 116 164 1.6393 
r110 115 138 0.0305882 
r111 113 134 0.104267 
r112 112 126 0.895 
r113 111 185 1.3775 
r114 116 110 0.0750515 
r115 109 196 0.02 
r116 109 110 2.82545 
r117 107 108 2.57125 
r118 103 104 0.158161 
r119 101 102 1.59619 
r120 100 114 0.0383557 
r121 99 103 0.0484865 
r122 99 100 0.218462 
r123 98 115 0.0450655 
r124 97 114 0.0383557 
r125 97 98 0.206897 
r126 95 108 0.0446983 
r127 95 96 0.19625 
r128 94 113 0.0446983 
r129 93 107 0.0446983 
r130 93 94 0.19625 
r131 90 147 1.42502 
r132 89 96 0.0446983 
r133 89 90 0.175 
r134 87 114 0.00526525 
r135 87 88 0.33 
r136 83 88 0.0446983 
r137 83 84 1.2575 
r138 82 84 1.3775 
r139 80 102 0.045798 
r140 80 81 0.689157 
r141 79 112 0.0470638 
r142 78 101 0.0472491 
r143 78 79 0.6325 
r144 77 111 0.0447588 
r145 76 82 0.0447588 
r146 76 77 0.544 
r147 71 81 0.0456764 
r148 71 72 2.05 
r149 34 104 6.08333 
r150 33 34 1.52074 
r151 32 175 51.6667 
r152 32 33 5.99862 
r153 30 104 6.41667 
r154 29 30 1.5 
r155 28 171 80.8333 
r156 28 29 6.1393 
r157 227 21 0.30381 
r158 19 21 3 
r159 18 19 0.109474 
r160 267 17 0.0446983 
r161 18 16 0.0456991 
r162 16 17 0.147143 
r163 13 259 0.407619 
r164 13 227 0.0446983 
r165 219 12 0.0147368 
.ends

.subckt PM_PC3D21U%VDDO 824 892 903 914 925 936 947 958 973 1165 1171 1175 1206
+ 1281 1292 1296 1567 1571 1574 1578 1586 1593 1600 1609 1619 1631 1641 1645 1651
+ 1692 1705 1708 1713
c0 1713 0 20.331f
c1 1705 0 47.448f
c2 1688 0 3.07874f
c3 1657 0 9.57209f
c4 1651 0 1.05183f
c5 1645 0 0.967487f
c6 1638 0 0.483559f
c7 1631 0 2.02376f
c8 1628 0 3.35178f
c9 1616 0 0.505312f
c10 1612 0 30.2873f
c11 1611 0 1.97484f
c12 1609 0 62.8661f
c13 1592 0 50.9197f
c14 1583 0 0.696813f
c15 1581 0 1.24538f
c16 1578 0 3.00652f
c17 1571 0 2.49843f
c18 1565 0 0.128644f
c19 1560 0 0.0724239f
c20 1558 0 1.09396f
c21 1551 0 0.330853f
c22 1547 0 0.15028f
c23 1541 0 0.229821f
c24 1537 0 0.661063f
c25 1533 0 0.347854f
c26 1529 0 0.206527f
c27 1525 0 0.46953f
c28 1520 0 1.52462f
c29 1518 0 0.988028f
c30 1516 0 0.0714314f
c31 1515 0 0.111846f
c32 1481 0 9.76182f
c33 1316 0 1.67177f
c34 1305 0 11.6457f
c35 1296 0 0.614832f
c36 1292 0 0.552836f
c37 1290 0 0.436901f
c38 1281 0 0.0819925f
c39 1258 0 0.119988f
c40 1250 0 0.470345f
c41 1247 0 0.413426f
c42 1246 0 0.114225f
c43 1244 0 0.00686422f
c44 1242 0 8.24928f
c45 1241 0 9.14178f
c46 1230 0 0.0962101f
c47 1218 0 0.329267f
c48 1215 0 0.667752f
c49 1213 0 0.0301061f
c50 1212 0 0.86994f
c51 1206 0 1.25664f
c52 1120 0 3.63084f
c53 1085 0 5.39118f
c54 1070 0 1.29937f
c55 1066 0 0.615713f
c56 1062 0 8.82846f
c57 1060 0 6.7868f
c58 1058 0 0.588747f
c59 1052 0 0.170971f
c60 1049 0 0.0533066f
c61 1047 0 0.0989764f
c62 973 0 7.73649f
c63 965 0 7.33964f
c64 962 0 11.7156f
c65 951 0 19.4869f
c66 940 0 19.4869f
c67 929 0 19.5155f
c68 918 0 19.4869f
c69 907 0 19.4869f
c70 896 0 11.8383f
c71 849 0 0.210878f
c72 812 0 0.0533066f
c73 801 0 0.12462f
c74 800 0 5.89132f
c75 797 0 0.104443f
c76 796 0 6.15803f
c77 17 0 0.486838f
c78 16 0 6.72918f
c79 7 0 0.152029f
c80 6 0 6.75738f
r81 1708 1711 0.00394881 
r82 1702 1703 0.337342 
r83 1701 1702 0.0141176 
r84 1700 1701 0.020305 
r85 1699 1700 0.0350763 
r86 1698 1699 0.0530283 
r87 1697 1698 0.0270153 
r88 1696 1697 0.0699782 
r89 1690 1705 0.00304139 
r90 1703 1690 0.00174292 
r91 1688 1690 0.461538 
r92 1654 1702 0.5 
r93 1651 1654 0.4025 
r94 1648 1701 0.5 
r95 1645 1648 0.28 
r96 1638 1641 0.0002 
r97 1638 1699 0.666667 
r98 1634 1697 0.5 
r99 1631 1634 1.455 
r100 1630 1696 0.00174292 
r101 1692 1630 0.00305011 
r102 1628 1630 0.461538 
r103 1623 1713 0.0039415 
r104 1711 1623 0.467422 
r105 1621 1623 0.5 
r106 1619 1621 0.181 
r107 1616 1619 0.17 
r108 1616 1703 1.5 
r109 1613 1614 0.5433 
r110 1612 1613 0.2247 
r111 1611 1614 0.099 
r112 1607 1609 0.0136564 
r113 1606 1607 0.0314855 
r114 1605 1606 0.0601494 
r115 1604 1605 0.0634357 
r116 1603 1604 0.0334274 
r117 1600 1603 0.01361 
r118 1589 1711 0.5 
r119 1586 1589 0.181 
r120 1583 1586 0.17 
r121 1583 1696 1.5 
r122 1581 1612 0.5293 
r123 1563 1565 0.12 
r124 1553 1556 3 
r125 1657 1553 0.0677429 
r126 1551 1553 3 
r127 1657 1543 0.1116 
r128 1685 1543 0.0028 
r129 1541 1543 6 
r130 1522 1565 0.02 
r131 1519 1563 0.02 
r132 1519 1520 2.92286 
r133 1560 1517 0.0456991 
r134 1517 1518 2.06857 
r135 1515 1518 0.0446983 
r136 1515 1516 0.0971429 
r137 1513 1516 0.0446983 
r138 1513 1558 1.64571 
r139 1481 1685 0.2648 
r140 1480 1685 0.2664 
r141 1479 1685 0.2664 
r142 1309 1533 1 
r143 1305 1537 1.2 
r144 1302 1305 7.59226 
r145 1287 1547 3 
r146 1284 1287 0.2885 
r147 1284 1529 2 
r148 1281 1284 2.755 
r149 1280 1281 1.8985 
r150 1279 1280 0.425 
r151 1541 1271 0.000149533 
r152 1581 1270 0.0555566 
r153 1270 1271 6 
r154 1269 1556 0.0444444 
r155 1551 1269 7.40741e-05 
r156 1581 1268 0.0279474 
r157 1268 1269 1.5 
r158 1529 1267 0.000233918 
r159 1613 1267 2 
r160 1537 1265 0.000114123 
r161 1612 1265 1.2 
r162 1533 1263 0.000100503 
r163 1614 1263 1 
r164 1547 1261 0.000299625 
r165 1613 1261 3 
r166 1560 1258 6 
r167 1558 1255 0.0557895 
r168 1255 1279 3 
r169 1296 1254 0.585 
r170 1525 1254 6 
r171 1525 1251 0.6875 
r172 1251 1302 6 
r173 1292 1250 0.228421 
r174 1700 1250 0.5 
r175 1522 1247 0.787143 
r176 1247 1280 6 
r177 1246 1316 0.0561431 
r178 1520 1246 6 
r179 1244 1290 0.0484211 
r180 1698 1244 2 
r181 1242 1309 0.219259 
r182 1241 1287 0.0845 
r183 1230 1279 0.8885 
r184 1229 1688 0.526 
r185 1229 1242 0.0447005 
r186 1228 1688 2.122 
r187 1228 1241 0.0446983 
r188 1215 1218 0.81913 
r189 1214 1218 0.309565 
r190 1212 1214 0.0446983 
r191 1212 1213 2.21913 
r192 1210 1213 0.0447246 
r193 1210 1316 4.4 
r194 1205 1258 0.0422277 
r195 1205 1206 1.5875 
r196 1201 1628 2.122 
r197 1201 1230 0.0446983 
r198 1218 1175 5.56667 
r199 1215 1171 5.56667 
r200 1165 1290 5.54444 
r201 1122 1123 0.490516 
r202 1121 1122 0.232864 
r203 1120 1121 0.279437 
r204 1111 1112 0.279231 
r205 1110 1111 0.2665 
r206 1101 1102 0.273962 
r207 1100 1101 0.261472 
r208 1087 1088 0.278131 
r209 1084 1578 0.0526456 
r210 1574 1084 0.0552365 
r211 1605 1084 0.00227273 
r212 1603 1082 3 
r213 1603 1080 0.666667 
r214 1604 1078 1.5 
r215 1606 1076 1.5 
r216 1607 1074 3 
r217 1607 1072 3 
r218 1607 1070 2 
r219 1068 1571 0.0620926 
r220 1567 1068 0.0688218 
r221 1598 1068 0.0025 
r222 1062 1100 3.77358e-05 
r223 1060 1110 3.84615e-05 
r224 1052 1120 0.117559 
r225 1051 1052 0.119812 
r226 1051 1058 0.181784 
r227 1050 1072 0.0101408 
r228 1049 1070 0.122066 
r229 1048 1085 0.0616822 
r230 1047 1048 0.08 
r231 1047 1066 0.274084 
r232 976 978 0.0829907 
r233 976 1123 0.1 
r234 978 973 0.159252 
r235 973 985 0.159252 
r236 973 976 0.0291589 
r237 965 973 0.159252 
r238 962 1076 1.5 
r239 958 962 0.793846 
r240 955 958 0.842637 
r241 955 1078 1.5 
r242 947 951 0.55145 
r243 944 947 0.585344 
r244 936 940 0.55145 
r245 933 936 0.585344 
r246 925 929 0.55145 
r247 922 925 0.585344 
r248 918 1112 1.5 
r249 914 918 0.55145 
r250 911 914 0.585344 
r251 911 1102 1.5 
r252 907 1111 1.5 
r253 903 907 0.55145 
r254 900 903 0.585344 
r255 900 1101 1.5 
r256 896 1110 1.5 
r257 892 896 0.793846 
r258 889 892 0.842637 
r259 889 1100 1.5 
r260 884 1092 0.2 
r261 973 884 0.0391734 
r262 867 1087 0.185047 
r263 1085 867 0.0930841 
r264 865 867 0.2 
r265 865 973 0.0397569 
r266 855 1080 0.231776 
r267 1092 855 0.232523 
r268 1603 855 1 
r269 944 853 1.5 
r270 853 1078 0.261509 
r271 1604 853 1.5 
r272 951 851 1.5 
r273 851 1076 0.266538 
r274 1606 851 1.5 
r275 1607 849 1 
r276 847 1092 0.231028 
r277 1082 847 0.278131 
r278 1603 847 0.6 
r279 933 845 1.5 
r280 845 853 0.273962 
r281 1604 845 1.5 
r282 940 843 1.5 
r283 843 851 0.279231 
r284 1606 843 1.5 
r285 841 1072 0.279437 
r286 1074 841 0.279437 
r287 1607 841 0.6 
r288 839 1082 0.139065 
r289 1088 839 0.683365 
r290 1603 839 2 
r291 922 837 1.5 
r292 837 845 0.273962 
r293 1102 837 0.273962 
r294 1604 837 1.5 
r295 929 835 1.5 
r296 835 843 0.279231 
r297 1112 835 0.279231 
r298 1606 835 1.5 
r299 833 1074 0.232864 
r300 1123 833 0.139343 
r301 1607 833 0.857143 
r302 830 1087 2 
r303 830 1085 0.666667 
r304 830 1066 0.666667 
r305 1593 830 0.0165962 
r306 830 1088 0.666667 
r307 828 1101 1.5 
r308 828 1062 1.5 
r309 828 1598 0.0805639 
r310 830 828 0.0404834 
r311 828 1102 1.5 
r312 826 1111 1.5 
r313 826 1060 1.5 
r314 1592 826 0.0330312 
r315 1598 826 0.0694058 
r316 826 1112 1.5 
r317 824 1121 3 
r318 824 1120 0.666667 
r319 824 1058 0.6 
r320 824 1611 0.0532592 
r321 824 1592 0.0241042 
r322 824 1122 0.666667 
r323 814 849 0.0239252 
r324 814 1049 0.04 
r325 812 849 0.135327 
r326 812 1050 0.04 
r327 807 985 0.73271 
r328 806 965 0.737944 
r329 805 973 0.73271 
r330 804 973 0.737944 
r331 801 805 0.0451326 
r332 801 973 2.504 
r333 800 807 0.0451326 
r334 800 973 2.44889 
r335 797 804 0.045921 
r336 797 973 2.687 
r337 796 806 0.045921 
r338 796 973 2.885 
r339 17 1685 1.51848 
r340 16 1481 0.0447329 
r341 16 1685 1.51162 
r342 15 1553 0.0737243 
r343 15 17 0.0447329 
r344 1480 7 0.0447329 
r345 7 1685 1.51848 
r346 6 1479 0.0447329 
r347 6 1685 1.51162 
.ends

.subckt PM_PC3D21U%net_m1_VSSO_res 9 38
c0 39 0 0.694968f
c1 33 0 0.883277f
c2 30 0 1.15213f
c3 24 0 0.0644634f
c4 23 0 0.320734f
c5 22 0 0.0527767f
c6 21 0 1.29383f
c7 20 0 0.862454f
r8 33 39 2.46349 
r9 33 38 1.8 
r10 29 30 0.987826 
r11 25 39 0.596923 
r12 23 25 0.0472932 
r13 23 24 0.351765 
r14 21 29 0.0468981 
r15 21 22 2.02471 
r16 20 24 0.0446983 
r17 19 22 0.0446983 
r18 19 20 1.4 
r19 30 9 5.56667 
.ends

.subckt PM_PC3D21U%VSS 818 888 910 953 962 974 977 983
c0 983 0 88.6777f
c1 974 0 47.8389f
c2 961 0 54.8696f
c3 959 0 2.3768f
c4 953 0 0.00116039f
c5 950 0 1.09105f
c6 927 0 2.39041f
c7 918 0 12.4122f
c8 917 0 1.77327f
c9 907 0 1.88751f
c10 899 0 14.8664f
c11 885 0 1.45648f
c12 882 0 2.50412f
c13 846 0 25.3375f
c14 833 0 0.0691108f
c15 832 0 0.0657389f
c16 831 0 6.05505f
c17 830 0 0.745402f
c18 829 0 0.269279f
c19 826 0 0.0372194f
c20 818 0 2.07055f
c21 816 0 6.66689f
c22 815 0 0.218207f
c23 813 0 0.69473f
c24 806 0 8.59778f
c25 804 0 0.255493f
c26 803 0 0.0856199f
c27 802 0 1.18476f
c28 696 0 2.50366f
c29 688 0 0.442566f
c30 686 0 0.184759f
c31 684 0 0.271526f
c32 681 0 24.6066f
c33 676 0 1.0863f
c34 675 0 6.52093f
c35 674 0 0.192795f
c36 669 0 2.10084f
c37 666 0 1.61909f
c38 663 0 0.135881f
c39 662 0 2.46923f
c40 661 0 0.119796f
c41 660 0 0.382053f
c42 659 0 2.03478f
c43 573 0 0.162892f
c44 571 0 0.72248f
c45 569 0 0.203897f
c46 544 0 2.94311f
c47 530 0 3.05953f
c48 528 0 0.031054f
c49 524 0 6.24623f
c50 523 0 0.161087f
c51 508 0 5.68764f
c52 505 0 3.2536f
r53 981 983 0.000702051 
r54 980 981 0.0832563 
r55 977 980 0.000703354 
r56 973 974 0.00318245 
r57 970 971 0.0645663 
r58 969 970 0.102493 
r59 968 969 0.128574 
r60 967 968 0.0141176 
r61 966 967 0.00135593 
r62 959 973 0.461538 
r63 950 953 1.5675 
r64 950 970 1.5 
r65 947 969 0.0535714 
r66 927 966 0.6 
r67 925 961 0.0297924 
r68 925 927 3.23529 
r69 917 961 0.0158586 
r70 917 918 1.016 
r71 914 973 0.00119641 
r72 971 914 0.110269 
r73 912 914 0.428571 
r74 910 912 0.189 
r75 907 910 0.013 
r76 907 981 0.131579 
r77 903 904 1.13584 
r78 902 903 0.55797 
r79 899 902 0.628223 
r80 899 971 0.3 
r81 892 966 0.0882951 
r82 962 892 0.00438684 
r83 890 892 0.428571 
r84 888 890 0.189 
r85 885 888 0.013 
r86 885 980 0.131579 
r87 955 882 1 
r88 845 879 0.02 
r89 845 846 0.9662 
r90 831 947 2.7305 
r91 831 832 0.0338756 
r92 825 833 0.0338756 
r93 824 832 0.0338756 
r94 821 833 0.00880368 
r95 820 832 0.00880368 
r96 818 874 2.59036 
r97 955 818 1.07807 
r98 821 818 0.88 
r99 820 818 1.064 
r100 817 961 0.0158586 
r101 817 818 1.9975 
r102 816 833 0.0338756 
r103 829 815 0.0632911 
r104 815 813 0.0574488 
r105 812 826 0.0448201 
r106 809 959 1.518 
r107 808 959 0.426 
r108 806 874 1.08482 
r109 804 955 1.06072 
r110 803 918 0.056 
r111 802 803 0.0448201 
r112 802 812 2.13041 
r113 816 699 0.592 
r114 818 699 1.93 
r115 693 947 1.612 
r116 826 693 1.283 
r117 693 968 1.5 
r118 696 688 2 
r119 903 688 2 
r120 699 686 3 
r121 902 686 3 
r122 684 874 3 
r123 904 684 3 
r124 681 896 1.1314 
r125 681 967 0.125 
r126 680 882 0.0075 
r127 879 680 0.056 
r128 896 680 0.24 
r129 678 830 0.102486 
r130 678 829 0.0155975 
r131 846 678 1 
r132 676 825 0.6415 
r133 809 676 0.0446983 
r134 675 824 0.6415 
r135 808 675 0.0446983 
r136 673 696 0.319594 
r137 673 674 0.0100156 
r138 668 669 1.37048 
r139 667 674 0.065217 
r140 666 668 0.0447067 
r141 666 667 1.0122 
r142 663 664 0.678222 
r143 662 669 0.0447675 
r144 662 664 0.650667 
r145 660 674 0.065217 
r146 660 661 0.254146 
r147 659 663 0.0448242 
r148 658 661 0.0446983 
r149 658 659 1.4039 
r150 572 573 0.147619 
r151 568 569 0.14988 
r152 806 568 0.0380723 
r153 565 567 0.143333 
r154 804 564 0.0385542 
r155 562 564 0.14506 
r156 818 561 0.159 
r157 544 818 0.159 
r158 543 573 0.02 
r159 543 561 1.247 
r160 542 569 0.02 
r161 542 544 1.243 
r162 818 541 0.192 
r163 539 818 0.192 
r164 538 539 0.342 
r165 818 538 0.192 
r166 536 818 0.192 
r167 535 536 0.342 
r168 818 535 0.192 
r169 533 818 0.192 
r170 532 533 0.342 
r171 818 532 0.192 
r172 530 818 0.192 
r173 529 572 0.02 
r174 529 541 1.214 
r175 528 571 0.04 
r176 528 530 0.243 
r177 526 568 0.02 
r178 526 571 0.938734 
r179 524 572 0.0380952 
r180 524 830 4.80524 
r181 523 813 0.555238 
r182 523 567 0.0380952 
r183 818 519 0.159 
r184 517 818 0.159 
r185 516 517 0.408 
r186 818 516 0.159 
r187 514 818 0.159 
r188 513 514 0.408 
r189 818 513 0.159 
r190 511 818 0.159 
r191 510 511 0.408 
r192 818 510 0.159 
r193 508 818 0.159 
r194 507 567 0.02 
r195 507 519 1.247 
r196 506 564 0.02 
r197 506 508 1.243 
r198 505 565 0.02 
r199 504 562 0.02 
r200 504 505 4.69271 
.ends

.subckt PM_PC3D21U%U14_MN4$11_gate 98 103 219 224 340 345 410 415 420 425 430
+ 435 449
c0 608 0 0.262319f
c1 599 0 0.434391f
c2 594 0 0.434851f
c3 589 0 0.434575f
c4 584 0 0.435587f
c5 572 0 2.53433f
c6 568 0 0.236421f
c7 553 0 1.11308f
c8 552 0 0.431447f
c9 544 0 0.834078f
c10 542 0 1.1253f
c11 538 0 0.826643f
c12 532 0 0.831111f
c13 526 0 0.840249f
c14 524 0 0.265083f
c15 522 0 0.154919f
c16 519 0 0.549905f
c17 516 0 0.0542673f
c18 515 0 0.491336f
c19 514 0 0.0454806f
c20 512 0 0.877133f
c21 511 0 0.746487f
c22 507 0 1.12148f
c23 503 0 1.12251f
c24 502 0 0.166461f
c25 501 0 8.91614f
c26 498 0 7.05495f
c27 495 0 0.470146f
c28 492 0 15.6479f
c29 487 0 1.41523f
c30 485 0 0.126896f
c31 480 0 0.113594f
c32 474 0 0.678933f
c33 473 0 0.0631592f
c34 464 0 0.535943f
c35 456 0 0.535994f
c36 450 0 0.299915f
c37 449 0 0.233998f
c38 442 0 0.166246f
c39 441 0 0.608776f
c40 440 0 0.169456f
c41 439 0 0.609004f
c42 438 0 0.169342f
c43 437 0 0.539737f
c44 435 0 3.10106f
c45 430 0 3.04886f
c46 425 0 3.04886f
c47 420 0 3.04886f
c48 415 0 3.04886f
c49 410 0 3.10216f
c50 354 0 0.974344f
c51 345 0 3.04886f
c52 344 0 0.168943f
c53 340 0 3.04886f
c54 339 0 0.168259f
c55 236 0 0.972748f
c56 224 0 3.04886f
c57 223 0 0.16995f
c58 219 0 3.04886f
c59 218 0 0.170025f
c60 115 0 0.975477f
c61 103 0 3.04886f
c62 102 0 0.169855f
c63 98 0 3.04886f
c64 97 0 0.169912f
r65 601 603 0.0556098 
r66 566 568 6 
r67 603 552 0.000487805 
r68 550 552 1.5 
r69 550 553 0.118418 
r70 546 599 0.00195122 
r71 596 546 0.0536585 
r72 544 546 1.5 
r73 544 548 0.0693333 
r74 540 594 0.000487805 
r75 591 540 0.055122 
r76 538 540 1.5 
r77 538 542 0.0701687 
r78 534 589 0.00292683 
r79 586 534 0.0526829 
r80 532 534 1.5 
r81 532 536 0.0696651 
r82 528 584 0.00536585 
r83 581 528 0.0502439 
r84 526 528 1.5 
r85 526 530 0.0715479 
r86 577 524 0.0521951 
r87 522 524 3 
r88 521 608 0.00341463 
r89 519 521 3 
r90 518 519 0.0609362 
r91 517 519 0.145021 
r92 515 518 0.0604945 
r93 515 516 0.444 
r94 513 516 0.0453233 
r95 513 514 0.08 
r96 550 512 0.101228 
r97 511 514 0.0453233 
r98 511 512 0.926 
r99 510 548 0.02 
r100 553 510 1.459 
r101 508 542 0.0200096 
r102 507 548 0.02 
r103 507 508 1.47 
r104 506 536 0.02 
r105 542 506 1.475 
r106 504 530 0.0200098 
r107 503 536 0.02 
r108 503 504 1.472 
r109 501 517 0.0604945 
r110 501 502 10.879 
r111 498 568 6 
r112 522 496 0.0524051 
r113 496 498 3.76212 
r114 495 522 0.00124031 
r115 494 502 0.0631505 
r116 494 495 0.130853 
r117 566 492 15.6586 
r118 490 492 6 
r119 487 490 1.388 
r120 487 572 6 
r121 484 572 3.376 
r122 480 485 0.0933197 
r123 473 484 0.0447517 
r124 485 473 0.157176 
r125 480 449 0.0666667 
r126 442 474 1.85294 
r127 441 464 5.05882 
r128 440 464 5.05882 
r129 439 456 5.05882 
r130 438 456 5.05882 
r131 437 450 1.85294 
r132 432 442 3.88985 
r133 432 435 183.96 
r134 427 441 3.88985 
r135 427 430 183.96 
r136 422 440 3.88985 
r137 422 425 183.96 
r138 417 439 3.88985 
r139 417 420 183.96 
r140 412 438 3.88985 
r141 412 415 183.96 
r142 407 437 3.88985 
r143 407 410 183.96 
r144 350 354 5.05882 
r145 349 354 5.05882 
r146 344 350 3.88985 
r147 344 345 183.96 
r148 339 349 3.88985 
r149 339 340 183.96 
r150 464 298 0.00142683 
r151 599 298 3 
r152 354 287 0.00133393 
r153 601 287 3 
r154 354 262 0.0278113 
r155 603 262 3 
r156 474 251 0.00142683 
r157 608 251 3 
r158 229 236 5.05882 
r159 228 236 5.05882 
r160 223 229 3.88985 
r161 223 224 183.96 
r162 218 228 3.88985 
r163 218 219 183.96 
r164 456 177 0.00142683 
r165 589 177 3 
r166 236 166 0.00133393 
r167 591 166 3 
r168 141 236 0.0278113 
r169 594 141 3 
r170 464 130 0.0277856 
r171 596 130 3 
r172 108 115 5.05882 
r173 107 115 5.05882 
r174 102 108 3.88985 
r175 102 103 183.96 
r176 97 107 3.88985 
r177 97 98 183.96 
r178 450 56 0.00142683 
r179 577 56 3 
r180 115 45 0.00133393 
r181 581 45 3 
r182 20 115 0.0278113 
r183 584 20 3 
r184 456 9 0.0277856 
r185 586 9 3 
.ends

.subckt PM_PC3D21U%VSSO 169 332 495 541 547 551 618 758 943 947 954 983 990
+ 1002 1013 1015 1023 1029 1033 1040 1046 1058 1101 1105 1111 1117
c0 1117 0 31.3081f
c1 1104 0 3.52185f
c2 1101 0 18.6894f
c3 1095 0 7.92036f
c4 1093 0 6.9617f
c5 1087 0 6.96195f
c6 1082 0 6.96199f
c7 1076 0 6.96197f
c8 1071 0 6.96025f
c9 1062 0 0.0949711f
c10 1058 0 0.00200359f
c11 1053 0 8.95235f
c12 1046 0 0.319472f
c13 1033 0 1.39251f
c14 1029 0 1.34465f
c15 1018 0 1.96897f
c16 1015 0 0.00103801f
c17 1013 0 8.25608e-19
c18 1011 0 8.96457f
c19 1000 0 7.8496f
c20 996 0 1.27875f
c21 986 0 1.65601f
c22 983 0 58.262f
c23 950 0 1.31273f
c24 947 0 10.6369f
c25 937 0 2.89475f
c26 936 0 0.191221f
c27 933 0 0.0212919f
c28 926 0 2.18076f
c29 923 0 0.0889459f
c30 921 0 0.112961f
c31 919 0 0.042376f
c32 918 0 0.32797f
c33 917 0 2.18028f
c34 908 0 6.86162f
c35 907 0 2.54594f
c36 905 0 0.058573f
c37 904 0 0.212005f
c38 902 0 0.0891541f
c39 900 0 1.33218f
c40 899 0 0.0204193f
c41 896 0 0.0328226f
c42 894 0 0.107983f
c43 893 0 0.0484324f
c44 892 0 1.50948f
c45 889 0 2.70895f
c46 886 0 0.475243f
c47 885 0 0.0594287f
c48 884 0 0.293756f
c49 882 0 10.9177f
c50 881 0 0.725625f
c51 871 0 0.708327f
c52 867 0 3.2432f
c53 865 0 0.383003f
c54 864 0 0.713156f
c55 863 0 0.297488f
c56 862 0 3.26314f
c57 861 0 0.383249f
c58 859 0 0.478987f
c59 857 0 0.0150931f
c60 856 0 0.515979f
c61 852 0 0.0689962f
c62 851 0 0.351569f
c63 818 0 0.122915f
c64 817 0 8.7061f
c65 787 0 0.269574f
c66 783 0 7.03694f
c67 781 0 0.146306f
c68 623 0 0.0969063f
c69 618 0 0.00373164f
c70 612 0 0.573643f
c71 604 0 2.95663f
c72 602 0 0.618586f
c73 600 0 0.100035f
c74 598 0 0.0273444f
c75 596 0 0.237144f
c76 591 0 0.0142283f
c77 584 0 1.57837f
c78 576 0 0.572844f
c79 511 0 5.37124f
c80 410 0 14.0389f
c81 360 0 14.0381f
c82 247 0 14.039f
c83 197 0 14.0391f
c84 34 0 14.0364f
c85 10 0 0.146306f
r86 1115 1117 0.00282778 
r87 1114 1115 0.355444 
r88 1111 1114 0.00283333 
r89 1107 1108 0.0111317 
r90 1104 1107 0.0090538 
r91 1104 1105 0.02 
r92 1064 1065 0.0140639 
r93 1057 1058 0.0126606 
r94 1095 1055 0.0113761 
r95 1053 1055 0.0638298 
r96 1050 1099 2 
r97 1046 1050 0.000761905 
r98 1013 1057 0.013211 
r99 1053 1013 0.000917431 
r100 1011 1013 0.000913242 
r101 1011 1064 0.0638298 
r102 1001 1002 0.02 
r103 1000 1064 0.0113242 
r104 998 1000 0.0327869 
r105 998 1001 0.0178092 
r106 996 998 0.029258 
r107 993 1115 0.357143 
r108 990 993 0.21 
r109 988 1101 0.00544385 
r110 1099 988 0.0327273 
r111 986 988 1 
r112 986 990 0.445 
r113 981 983 0.00612761 
r114 981 1095 0.0327869 
r115 1089 979 0.00301483 
r116 979 1093 0.00301741 
r117 977 979 0.0266667 
r118 977 981 0.0287785 
r119 1040 976 0.130435 
r120 976 1087 0.00301741 
r121 1084 976 0.00301741 
r122 974 976 0.0266667 
r123 974 977 0.0242129 
r124 1078 973 0.00301483 
r125 973 1082 0.00301741 
r126 971 973 0.0266667 
r127 971 974 0.0242129 
r128 970 971 0.000615582 
r129 1023 969 0.130435 
r130 969 1076 0.00301741 
r131 1073 969 0.00301741 
r132 967 969 0.0266667 
r133 967 970 0.0235973 
r134 1067 966 0.00301483 
r135 966 1071 0.00301741 
r136 964 966 0.0266667 
r137 964 967 0.0242129 
r138 963 996 0.02 
r139 963 964 0.0277012 
r140 1001 960 0.428315 
r141 957 1114 0.357143 
r142 954 957 0.21 
r143 952 1110 0.148897 
r144 1108 952 0.0151391 
r145 950 952 1 
r146 950 954 0.445 
r147 939 940 0.0186096 
r148 938 939 0.0229947 
r149 937 1099 0.279893 
r150 937 940 0.00171123 
r151 925 940 0.02 
r152 925 926 4.02 
r153 923 1062 0.0410689 
r154 921 923 3 
r155 920 921 0.148421 
r156 918 920 0.044878 
r157 918 919 0.407059 
r158 917 919 0.0446983 
r159 916 938 0.02 
r160 916 917 3.69176 
r161 1033 915 0.445 
r162 913 915 0.75 
r163 1029 912 0.365 
r164 910 912 0.6 
r165 910 913 0.0219251 
r166 909 936 0.00185772 
r167 909 910 0.0203209 
r168 908 938 0.00181818 
r169 908 913 0.0544385 
r170 906 936 0.0857909 
r171 906 907 3.63314 
r172 904 907 0.0448303 
r173 904 905 0.199481 
r174 901 905 0.0447008 
r175 901 902 0.0831579 
r176 899 900 0.109474 
r177 899 896 0.0429996 
r178 896 933 0.0914286 
r179 893 894 0.135 
r180 892 893 0.0448391 
r181 891 892 2.75862 
r182 889 1018 6 
r183 886 933 0.0429996 
r184 886 889 0.0694737 
r185 884 891 0.044715 
r186 884 885 0.466667 
r187 883 1107 0.02 
r188 882 936 0.00185772 
r189 882 883 0.173904 
r190 881 885 0.0450432 
r191 1110 881 1.29371 
r192 873 1058 0.230275 
r193 871 1053 0.210275 
r194 868 1018 3.78429 
r195 866 1015 0.229041 
r196 866 867 0.0863581 
r197 864 1011 0.209132 
r198 864 865 0.0863581 
r199 873 862 0.0861375 
r200 862 863 0.132033 
r201 871 861 0.0861375 
r202 857 859 0.201086 
r203 857 856 0.0421961 
r204 1062 856 1.01412 
r205 851 868 0.0446983 
r206 851 852 0.542857 
r207 848 852 0.0449572 
r208 818 1013 0.128 
r209 817 863 0.0473573 
r210 817 1013 0.126 
r211 787 818 0.0473573 
r212 867 787 0.132033 
r213 783 1013 0.126 
r214 782 1013 0.128 
r215 781 782 0.0473573 
r216 781 865 0.250407 
r217 859 758 5.56667 
r218 604 618 4.92 
r219 926 604 6 
r220 939 602 0.75 
r221 600 623 0.04 
r222 902 600 3 
r223 598 612 0.0494737 
r224 900 598 2 
r225 848 596 0.2775 
r226 894 596 6 
r227 591 602 0.437895 
r228 591 592 0.0407126 
r229 592 584 2.31765 
r230 623 576 0.340267 
r231 584 551 5.56667 
r232 576 547 5.56667 
r233 541 612 5.54444 
r234 514 947 0.0419737 
r235 943 514 0.0413851 
r236 970 514 0.00128205 
r237 960 511 2.21804 
r238 511 1108 0.6 
r239 979 495 0.130435 
r240 1040 410 0.00313778 
r241 1087 410 0.0652174 
r242 495 400 0.0031351 
r243 1089 400 0.0652174 
r244 360 495 0.00314046 
r245 1093 360 0.0652174 
r246 1055 349 0.0141284 
r247 349 1057 0.0652174 
r248 973 332 0.130435 
r249 1023 247 0.00313778 
r250 1076 247 0.0652174 
r251 332 237 0.0031351 
r252 1078 237 0.0652174 
r253 197 332 0.00314046 
r254 1082 197 0.0652174 
r255 187 1040 0.00313778 
r256 1084 187 0.0652174 
r257 966 169 0.130435 
r258 84 1015 0.0126027 
r259 1013 84 0.0131507 
r260 1065 84 0.0652174 
r261 169 74 0.0031351 
r262 1067 74 0.0652174 
r263 34 169 0.00314046 
r264 1071 34 0.0652174 
r265 24 1023 0.00313778 
r266 1073 24 0.0652174 
r267 10 861 0.250407 
r268 10 783 0.0473573 
.ends

.subckt PM_PC3D21U%CIN 14 19 45 55 118 151
c0 147 0 7.07074f
c1 137 0 15.705f
c2 128 0 4.21598f
c3 122 0 0.143541f
c4 120 0 5.08146f
c5 115 0 0.112303f
c6 113 0 0.0723692f
c7 110 0 0.0810017f
c8 103 0 2.04148f
c9 99 0 1.5083f
c10 98 0 0.0379464f
c11 97 0 3.153f
c12 96 0 3.30766f
c13 94 0 0.0895149f
c14 91 0 0.0898897f
c15 88 0 0.0375884f
c16 87 0 0.855486f
c17 86 0 0.0338006f
c18 82 0 1.37568f
c19 79 0 0.0345401f
c20 78 0 0.568273f
c21 74 0 7.74777f
c22 68 0 0.246801f
c23 55 0 0.01128f
c24 45 0 1.07973f
c25 37 0 1.1786f
c26 36 0 1.9986f
c27 28 0 0.0729834f
c28 27 0 1.06541f
c29 26 0 0.350684f
c30 24 0 0.357702f
c31 19 0 6.32264e-19
c32 18 0 0.940805f
c33 14 0 5.39284e-19
c34 13 0 1.11938f
r35 135 137 3.34857 
r36 134 135 0.468571 
r37 132 134 11.5829 
r38 125 147 6 
r39 137 122 6 
r40 120 122 6 
r41 120 125 10.7371 
r42 115 151 0.0207123 
r43 115 150 0.0568712 
r44 113 115 6 
r45 113 118 0.0207123 
r46 112 147 11.4788 
r47 110 111 0.0446512 
r48 103 110 0.0447313 
r49 97 112 0.04509 
r50 97 98 7.86286 
r51 140 96 4.69857 
r52 94 96 6 
r53 150 94 0.285714 
r54 92 98 0.0446983 
r55 92 94 0.0457143 
r56 89 91 0.107847 
r57 89 140 6 
r58 87 91 0.0448046 
r59 87 88 1.56857 
r60 86 88 0.0448488 
r61 85 86 0.103226 
r62 82 132 6 
r63 80 82 2.17429 
r64 78 85 0.0448488 
r65 78 79 1.35143 
r66 128 76 7.37143 
r67 74 76 6 
r68 73 79 0.0446983 
r69 73 74 14.7657 
r70 70 128 6 
r71 68 80 0.0446983 
r72 68 70 0.3 
r73 55 40 1.125 
r74 111 40 6 
r75 37 108 2.29429 
r76 37 135 6 
r77 36 53 4.03143 
r78 108 36 6 
r79 103 33 2.70049 
r80 33 53 6 
r81 45 32 1.105 
r82 99 32 6 
r83 99 29 1.88 
r84 29 134 6 
r85 27 40 0.0125 
r86 27 28 0.0116061 
r87 25 28 0.0306792 
r88 25 26 0.453333 
r89 24 28 0.0306792 
r90 23 24 0.453333 
r91 18 26 0.0448998 
r92 18 19 1.1375 
r93 13 23 0.0448998 
r94 13 14 1.1375 
.ends

.subckt PM_PC3D21U%PAD 21 50 91 120 161 190 247 271 295 319 349 355 380 488 507
+ 514
c0 522 0 26.8802f
c1 515 0 84.0152f
c2 514 0 64.3341f
c3 511 0 159.215f
c4 506 0 1.02561f
c5 499 0 9.97339f
c6 494 0 12.958f
c7 485 0 0.118304f
c8 482 0 206.024f
c9 468 0 15.3329f
c10 450 0 3.86483f
c11 381 0 128.439f
c12 380 0 1.04909f
c13 355 0 13.2018f
c14 349 0 13.1716f
c15 319 0 13.1699f
c16 295 0 13.1832f
c17 271 0 13.4186f
c18 247 0 13.1699f
c19 212 0 7.52869f
c20 190 0 2.9853f
c21 173 0 6.78371f
c22 161 0 2.9848f
c23 144 0 6.78371f
c24 120 0 2.9853f
c25 103 0 6.78371f
c26 91 0 2.9853f
c27 74 0 6.78371f
c28 50 0 2.98608f
c29 33 0 6.78371f
c30 21 0 2.9853f
c31 4 0 6.78371f
r32 522 523 0.118407 
r33 521 522 0.118407 
r34 520 521 0.056883 
r35 519 520 0.061524 
r36 518 519 0.118407 
r37 517 518 0.0830354 
r38 516 517 0.0353716 
r39 514 515 0.0124825 
r40 512 514 0.000593149 
r41 511 512 0.0669731 
r42 506 507 0.00916 
r43 499 517 0.0545455 
r44 494 520 0.015 
r45 485 488 0.00916 
r46 485 506 2 
r47 481 494 0.0264274 
r48 481 482 0.147774 
r49 475 476 0.00752787 
r50 474 475 0.021023 
r51 472 474 0.000537705 
r52 472 511 0.00162999 
r53 470 472 0.000537705 
r54 468 470 0.0285508 
r55 459 506 0.1388 
r56 458 459 0.132996 
r57 457 458 0.0171733 
r58 456 457 0.0171733 
r59 455 456 0.0171733 
r60 454 455 0.0171733 
r61 453 454 0.0171733 
r62 450 499 0.202116 
r63 482 383 0.0288462 
r64 381 453 0.00818451 
r65 381 383 0.00646891 
r66 450 380 0.0147368 
r67 344 349 0.0072093 
r68 453 344 0.0566038 
r69 342 355 0.0072093 
r70 458 342 0.0566038 
r71 315 319 0.0072093 
r72 457 315 0.0566038 
r73 291 295 0.0072093 
r74 456 291 0.0566038 
r75 267 271 0.0072093 
r76 455 267 0.0566038 
r77 243 247 0.0072093 
r78 454 243 0.0566038 
r79 223 226 0.0022831 
r80 476 223 0.0375475 
r81 223 512 0.00547945 
r82 474 222 0.00210084 
r83 220 222 0.000537705 
r84 470 220 0.00210084 
r85 222 218 0.0105115 
r86 475 218 0.00712251 
r87 214 226 0.0187738 
r88 218 214 0.00376393 
r89 476 214 0.00712251 
r90 212 220 0.0142754 
r91 468 212 0.00356125 
r92 515 197 0.345778 
r93 196 522 0.0220132 
r94 196 197 0.319822 
r95 190 177 0.00249413 