* File: pc3b03d.dist.sp.pex
* Created: Sun Jul  4 12:13:10 2010
* Program "Calibre xRC"
* Version "v2008.4_19.14"
* Nominal Temperature: 27C
* Circuit Temperature: 27C
* 
.subckt PM_PC3B03D%PAD 21 50 79 108 137 166 218 242 266 290 320 326 389 428 452
+ 459
c0 467 0 29.7343f
c1 460 0 83.2789f
c2 459 0 64.3341f
c3 456 0 159.215f
c4 451 0 1.02644f
c5 444 0 9.95288f
c6 434 0 14.4399f
c7 425 0 0.117887f
c8 423 0 214.145f
c9 408 0 15.3329f
c10 397 0 46.9231f
c11 392 0 65.4578f
c12 390 0 15.8923f
c13 389 0 1.04872f
c14 388 0 3.87636f
c15 326 0 13.4236f
c16 320 0 13.415f
c17 290 0 13.4098f
c18 266 0 13.4219f
c19 242 0 13.6994f
c20 218 0 13.4116f
c21 176 0 7.52869f
c22 166 0 2.98552f
c23 149 0 6.78371f
c24 137 0 2.98621f
c25 120 0 6.78371f
c26 108 0 2.98621f
c27 91 0 6.78371f
c28 79 0 2.9856f
c29 62 0 6.78371f
c30 50 0 2.98471f
c31 33 0 6.78371f
c32 21 0 2.98457f
c33 4 0 6.78371f
r34 467 468 0.118407 
r35 466 467 0.118407 
r36 465 466 0.056883 
r37 464 465 0.061524 
r38 463 464 0.118407 
r39 462 463 0.0830354 
r40 461 462 0.0353716 
r41 459 460 0.0126934 
r42 457 459 0.000382252 
r43 456 457 0.0669731 
r44 451 452 0.00916 
r45 444 462 0.0545455 
r46 434 465 0.015 
r47 425 428 0.00916 
r48 425 451 2 
r49 423 434 0.0264274 
r50 421 423 0.147454 
r51 421 422 0.0288462 
r52 415 416 0.00752787 
r53 414 415 0.021023 
r54 412 414 0.000537705 
r55 412 456 0.00162999 
r56 410 412 0.000537705 
r57 408 410 0.0285508 
r58 399 451 0.1388 
r59 398 399 0.132996 
r60 397 398 0.0171733 
r61 394 395 0.0171733 
r62 393 394 0.0171733 
r63 392 393 0.0171733 
r64 391 397 0.0142401 
r65 391 395 0.00293318 
r66 390 422 0.00646891 
r67 390 392 0.00818451 
r68 388 444 0.202116 
r69 388 389 0.0147368 
r70 315 320 0.0072093 
r71 392 315 0.0566038 
r72 313 326 0.0072093 
r73 398 313 0.0566038 
r74 286 290 0.0072093 
r75 397 286 0.0566038 
r76 262 266 0.0072093 
r77 395 262 0.0566038 
r78 238 242 0.0072093 
r79 394 238 0.0566038 
r80 214 218 0.0072093 
r81 393 214 0.0566038 
r82 194 197 0.0022831 
r83 416 194 0.0375475 
r84 194 457 0.00547945 
r85 414 193 0.00210084 
r86 191 193 0.000537705 
r87 410 191 0.00210084 
r88 193 182 0.0105115 
r89 415 182 0.00712251 
r90 178 197 0.0187738 
r91 182 178 0.00376393 
r92 416 178 0.00712251 
r93 176 191 0.0142754 
r94 408 176 0.00356125 
r95 460 173 0.345778 
r96 172 468 0.0220132 
r97 172 173 0.319822 
r98 166 153 0.00249413 
r99 173 153 0.0425532 
r100 149 166 0.00249413 
r101 173 149 0.0425532 
r102 460 144 0.345778 
r103 143 467 0.0220132 
r104 143 144 0.319822 
r105 137 124 0.00249413 
r106 144 124 0.0425532 
r107 120 137 0.00249413 
r108 144 120 0.0425532 
r109 460 115 0.345778 
r110 114 466 0.0220132 
r111 114 115 0.319822 
r112 108 95 0.00249413 
r113 115 95 0.0425532 
r114 91 108 0.00249413 
r115 115 91 0.0425532 
r116 460 86 0.345778 
r117 85 464 0.0220132 
r118 85 86 0.319822 
r119 79 66 0.00249413 
r120 86 66 0.0425532 
r121 62 79 0.00249413 
r122 86 62 0.0425532 
r123 460 57 0.345778 
r124 56 463 0.0220132 
r125 56 57 0.319822 
r126 50 37 0.00249413 
r127 57 37 0.0425532 
r128 33 50 0.00249413 
r129 57 33 0.0425532 
r130 460 28 0.345778 
r131 27 461 0.0220132 
r132 27 28 0.319822 
r133 21 8 0.00249413 
r134 28 8 0.0425532 
r135 4 21 0.00249413 
r136 28 4 0.0425532 
.ends

.subckt PM_PC3B03D%noxref_2 8 18
c0 20 0 4.82222f
c1 18 0 0.993329f
c2 8 0 6.70454f
r3 18 20 0.158105 
r4 20 8 0.158526 
.ends

.subckt PM_PC3B03D%net_m32_VSSO_res 23 101 105 109 113 117
c0 117 0 0.519409f
c1 113 0 0.519409f
c2 109 0 0.519409f
c3 105 0 0.733303f
c4 101 0 0.73297f
c5 97 0 0.864037f
c6 91 0 0.0518462f
c7 57 0 0.0631005f
c8 47 0 0.242979f
c9 46 0 0.19588f
c10 45 0 0.135544f
c11 44 0 0.102874f
c12 43 0 0.162435f
c13 23 0 0.561629f
c14 21 0 0.0477785f
c15 20 0 0.371634f
r16 92 97 0.0552941 
r17 91 92 0.02 
r18 90 91 0.124706 
r19 58 101 85 
r20 56 117 85 
r21 56 57 0.93595 
r22 55 113 85 
r23 54 55 1.5553 
r24 53 97 2.20253 
r25 52 54 6.2212 
r26 52 53 1.5553 
r27 51 109 85 
r28 50 52 10.0922 
r29 50 51 1.5553 
r30 49 105 85 
r31 48 57 2.23066 
r32 47 58 3.37824 
r33 47 48 10.8571 
r34 46 54 4.70046 
r35 45 57 2.23066 
r36 45 46 9 
r37 44 49 3.37824 
r38 43 50 2.90323 
r39 43 44 10.8571 
r40 22 23 0.18 
r41 90 21 0.0446983 
r42 20 22 0.0446983 
r43 20 21 0.521176 
.ends

.subckt PM_PC3B03D%U28_padr 40 46 54 116 118 120 161 169
c0 256 0 16.1744f
c1 250 0 9.28701f
c2 243 0 1.97945f
c3 239 0 15.9553f
c4 225 0 0.145078f
c5 224 0 0.0372956f
c6 223 0 0.0478417f
c7 222 0 0.0873247f
c8 219 0 6.60978f
c9 216 0 0.611623f
c10 215 0 0.164999f
c11 212 0 5.63936f
c12 210 0 0.516633f
c13 208 0 0.0693973f
c14 207 0 0.207306f
c15 206 0 0.411447f
c16 202 0 0.690826f
c17 196 0 1.02209f
c18 190 0 1.73033f
c19 181 0 1.83121f
c20 174 0 0.420544f
c21 169 0 1.07041f
c22 168 0 0.70377f
c23 167 0 0.0771456f
c24 166 0 0.490096f
c25 163 0 0.668931f
c26 161 0 5.5788e-21
c27 142 0 0.093022f
c28 136 0 0.0843457f
c29 128 0 16.123f
c30 120 0 1.09106f
c31 118 0 0.567391f
c32 116 0 1.02291f
c33 86 0 0.394633f
c34 83 0 0.386024f
c35 82 0 0.370735f
c36 80 0 0.40312f
c37 76 0 0.421448f
c38 73 0 0.433354f
c39 70 0 0.226943f
c40 69 0 0.0193661f
c41 68 0 0.0834583f
c42 66 0 0.0580109f
c43 65 0 0.0700572f
c44 64 0 0.0831665f
c45 60 0 0.30153f
c46 58 0 0.0331349f
c47 57 0 0.0954138f
c48 54 0 1.27015f
c49 51 0 0.068806f
c50 50 0 0.372865f
c51 46 0 2.39968f
c52 44 0 0.512434f
c53 40 0 2.3275f
r54 256 241 0.172857 
r55 239 241 6 
r56 235 237 3.984 
r57 225 227 3 
r58 224 225 0.109474 
r59 224 222 0.0456991 
r60 222 223 0.147143 
r61 219 256 2 
r62 217 223 0.0446983 
r63 217 219 10.3129 
r64 216 227 0.30381 
r65 250 212 0.185079 
r66 210 212 1.2 
r67 209 210 0.482857 
r68 207 209 0.0446983 
r69 207 208 0.125714 
r70 206 208 0.0446983 
r71 205 216 0.0446983 
r72 205 206 0.407619 
r73 202 243 6 
r74 200 215 0.15871 
r75 200 202 0.867097 
r76 198 239 1.73733 
r77 237 198 9.256 
r78 196 198 6 
r79 215 196 1.56387 
r80 176 243 2.38452 
r81 168 250 0.18836 
r82 168 169 0.0147368 
r83 166 176 0.0446983 
r84 166 167 0.619355 
r85 163 167 0.0456388 
r86 162 174 0.0200258 
r87 162 163 0.791 
r88 161 174 0.00412903 
r89 127 128 0.434667 
r90 108 120 168.333 
r91 108 142 3.92502 
r92 103 118 51.6667 
r93 102 103 1.66667 
r94 95 116 168.333 
r95 136 95 3.6393 
r96 190 90 6 
r97 87 193 0.8025 
r98 190 87 2.8475 
r99 87 128 6 
r100 86 142 0.77 
r101 193 86 6 
r102 83 188 1.2525 
r103 83 237 6 
r104 82 136 0.7825 
r105 188 82 6 
r106 181 80 6 
r107 77 184 0.8 
r108 181 77 2.88 
r109 77 127 6 
r110 184 76 6 
r111 73 179 0.482667 
r112 73 235 6 
r113 72 127 3.75467 
r114 179 72 6 
r115 70 90 0.05 
r116 66 76 0.642857 
r117 65 80 0.642857 
r118 64 70 0.0446983 
r119 63 69 0.0338756 
r120 63 64 0.1875 
r121 60 102 1.16667 
r122 59 69 0.0338756 
r123 59 60 0.245 
r124 57 69 0.00880368 
r125 57 58 0.25 
r126 53 58 0.0446983 
r127 53 54 1.2575 
r128 52 54 1.3775 
r129 50 52 0.0447588 
r130 50 51 0.544 
r131 68 46 2.375 
r132 44 68 0.12 
r133 43 66 0.0449572 
r134 43 44 0.8475 
r135 39 65 0.0449572 
r136 39 40 1.4975 
r137 38 51 0.0447588 
r138 38 40 1.3775 
.ends

.subckt PM_PC3B03D%net_m72_VDDO_res 8 39
c0 39 0 2.10533f
c1 34 0 1.31795f
c2 18 0 0.080811f
c3 15 0 0.169616f
c4 10 0 0.0679084f
c5 9 0 0.730763f
c6 8 0 0.365361f
c7 6 0 0.182987f
r8 36 39 3.87662 
r9 17 34 43.5 
r10 16 34 49.5 
r11 18 15 16.5 
r12 11 18 4.13452 
r13 10 16 3.35237 
r14 9 15 3.35237 
r15 9 10 56.025 
r16 11 8 6.95493 
r17 7 36 1.62175 
r18 7 8 5.625 
r19 6 17 3.35237 
r20 6 8 5.625 
.ends

.subckt PM_PC3B03D%VSSO 403 428 432 482 806 810 817 846 853 865 880 882 887 892
+ 898 907 913 919 925 934 940 946 955 961 967 976 982 988 995 1004 1010 1022 1075
+ 1081 1085 1091
c0 1091 0 32.1692f
c1 1078 0 2.00115f
c2 1075 0 47.2611f
c3 1054 0 7.93618f
c4 1052 0 6.95875f
c5 1047 0 6.95903f
c6 1042 0 6.96073f
c7 1037 0 6.96397f
c8 1032 0 6.9659f
c9 1022 0 0.00391448f
c10 1017 0 8.95235f
c11 1010 0 0.342408f
c12 995 0 0.339593f
c13 988 0 1.36597f
c14 982 0 1.40025f
c15 967 0 1.35721f
c16 961 0 1.35624f
c17 946 0 1.34294f
c18 940 0 1.34013f
c19 925 0 1.20335f
c20 919 0 0.840215f
c21 913 0 1.37894f
c22 898 0 2.02532f
c23 892 0 1.55498f
c24 887 0 1.69019f
c25 885 0 0.242286f
c26 882 0 0.00103935f
c27 880 0 8.25608e-19
c28 878 0 8.96457f
c29 863 0 7.85649f
c30 859 0 1.27875f
c31 849 0 1.65707f
c32 846 0 58.2593f
c33 813 0 1.34804f
c34 810 0 10.6383f
c35 798 0 0.115324f
c36 792 0 5.05312f
c37 789 0 0.112727f
c38 788 0 0.0408091f
c39 787 0 1.53039f
c40 785 0 0.0508684f
c41 784 0 0.327339f
c42 783 0 0.687295f
c43 777 0 0.580841f
c44 773 0 0.708327f
c45 771 0 0.04289f
c46 770 0 3.25503f
c47 768 0 0.383003f
c48 767 0 0.713156f
c49 766 0 0.303464f
c50 765 0 3.27963f
c51 764 0 0.383249f
c52 763 0 2.15428f
c53 761 0 0.0575881f
c54 760 0 0.183911f
c55 759 0 0.343268f
c56 726 0 0.122915f
c57 725 0 8.90513f
c58 692 0 0.269574f
c59 688 0 7.03694f
c60 684 0 0.146306f
c61 482 0 0.60424f
c62 453 0 0.962363f
c63 451 0 0.101486f
c64 449 0 0.0540025f
c65 447 0 1.53066f
c66 446 0 0.0347102f
c67 445 0 0.346471f
c68 432 0 0.78472f
c69 431 0 0.108671f
c70 428 0 0.556695f
c71 424 0 0.0481914f
c72 423 0 0.440327f
c73 403 0 0.114597f
c74 396 0 0.121709f
c75 317 0 7.05117f
c76 284 0 14.0334f
c77 234 0 14.0341f
c78 184 0 14.036f
c79 134 0 14.0388f
c80 84 0 14.0404f
c81 10 0 0.146306f
r82 1089 1091 0.00282778 
r83 1088 1089 0.355444 
r84 1085 1088 0.00283333 
r85 1080 1082 0.010449 
r86 1080 1081 0.02 
r87 1078 1080 0.0140408 
r88 1072 1073 0.125134 
r89 1071 1072 0.0410695 
r90 1070 1071 0.0396791 
r91 1069 1070 0.043262 
r92 1068 1069 0.0347594 
r93 1067 1068 0.0198396 
r94 1066 1067 0.07 
r95 1065 1066 0.0253476 
r96 1064 1065 0.0230481 
r97 1063 1064 0.0475936 
r98 1062 1063 0.0226738 
r99 1061 1062 0.0233155 
r100 1060 1061 0.0203209 
r101 1059 1060 0.0213904 
r102 1058 1078 0.02 
r103 1058 1059 0.0715508 
r104 1026 1027 0.0140639 
r105 1021 1022 0.0126606 
r106 1054 1019 0.0113761 
r107 1017 1019 0.0638298 
r108 1014 1073 2 
r109 1010 1014 0.000380952 
r110 995 1072 2 
r111 991 1071 0.6 
r112 988 991 0.285 
r113 985 1070 0.6 
r114 982 985 0.32 
r115 970 1069 0.6 
r116 967 970 0.36 
r117 964 1068 0.6 
r118 961 964 0.37 
r119 949 1066 0.6 
r120 946 949 0.3225 
r121 943 1065 0.6 
r122 940 943 0.325 
r123 928 1064 0.6 
r124 925 928 0.3425 
r125 922 1063 0.75 
r126 919 922 0.04 
r127 916 1062 0.6 
r128 913 916 0.365 
r129 901 1061 0.6 
r130 898 901 0.194286 
r131 895 1060 0.6 
r132 892 895 0.3175 
r133 889 1059 0.666667 
r134 887 889 0.96 
r135 880 1021 0.013211 
r136 1017 880 0.000917431 
r137 878 880 0.000913242 
r138 878 1026 0.0638298 
r139 864 865 0.02 
r140 863 1026 0.0113242 
r141 861 863 0.0327869 
r142 861 864 0.0166784 
r143 859 861 0.029258 
r144 856 1089 0.357143 
r145 853 856 0.21 
r146 851 1075 0.00544385 
r147 1073 851 0.0345455 
r148 849 851 1 
r149 849 853 0.445 
r150 844 846 0.00612761 
r151 844 1054 0.0327869 
r152 1004 842 0.130435 
r153 842 1052 0.00301741 
r154 1049 842 0.00301741 
r155 840 842 0.0266667 
r156 840 844 0.0287785 
r157 976 839 0.130435 
r158 839 1047 0.00301741 
r159 1044 839 0.00301741 
r160 837 839 0.0266667 
r161 837 840 0.0242129 
r162 955 836 0.130435 
r163 836 1042 0.00301741 
r164 1039 836 0.00301741 
r165 834 836 0.0266667 
r166 834 837 0.0242129 
r167 833 834 0.000615582 
r168 934 832 0.130435 
r169 832 1037 0.00301741 
r170 1034 832 0.00301741 
r171 830 832 0.0266667 
r172 830 833 0.0235973 
r173 907 829 0.130435 
r174 829 1032 0.00301741 
r175 1029 829 0.00301741 
r176 827 829 0.0266667 
r177 827 830 0.0242129 
r178 826 859 0.02 
r179 826 827 0.0277012 
r180 864 823 0.429445 
r181 820 1088 0.357143 
r182 817 820 0.21 
r183 815 1084 0.144104 
r184 1082 815 0.0333061 
r185 813 815 1 
r186 813 817 0.445 
r187 801 885 3 
r188 798 801 0.0536842 
r189 791 798 0.02 
r190 791 792 6.35789 
r191 788 789 0.1275 
r192 787 788 0.0448391 
r193 786 787 2.75862 
r194 784 786 0.044715 
r195 784 785 0.466667 
r196 783 785 0.0450432 
r197 1084 783 1.29371 
r198 777 798 0.02 
r199 777 778 0.746316 
r200 775 1022 0.230275 
r201 773 1017 0.210275 
r202 771 885 0.109474 
r203 769 882 0.229041 
r204 769 770 0.0863581 
r205 767 878 0.209132 
r206 767 768 0.0863581 
r207 775 765 0.0861375 
r208 765 766 0.132033 
r209 773 764 0.0861375 
r210 771 763 0.0420103 
r211 762 763 3.01467 
r212 760 762 0.0446983 
r213 760 761 0.276 
r214 759 761 0.0447588 
r215 726 880 0.128 
r216 725 766 0.0473573 
r217 725 880 0.126 
r218 692 726 0.0473573 
r219 770 692 0.132033 
r220 688 880 0.126 
r221 687 887 1.1475 
r222 685 880 0.128 
r223 684 685 0.0473573 
r224 684 768 0.250407 
r225 792 455 6 
r226 1067 453 0.75 
r227 789 451 3 
r228 449 482 0.0494737 
r229 778 449 2 
r230 446 453 0.437895 
r231 446 447 0.0407126 
r232 687 445 0.0338756 
r233 431 455 0.0413535 
r234 431 432 1.14783 
r235 427 428 0.221176 
r236 423 427 0.0446983 
r237 423 424 0.608235 
r238 421 424 0.0446983 
r239 421 447 2.01647 
r240 402 445 0.00880368 
r241 402 403 0.1375 
r242 396 759 0.6025 
r243 396 451 0.0265396 
r244 320 810 0.0419737 
r245 806 320 0.0413851 
r246 833 320 0.00128205 
r247 823 317 2.21804 
r248 317 1082 0.6 
r249 1004 284 0.00313778 
r250 1052 284 0.0652174 
r251 1019 273 0.0141284 
r252 273 1021 0.0652174 
r253 976 234 0.00313778 
r254 1047 234 0.0652174 
r255 224 1004 0.00313778 
r256 1049 224 0.0652174 
r257 955 184 0.00313778 
r258 1042 184 0.0652174 
r259 174 976 0.00313778 
r260 1044 174 0.0652174 
r261 934 134 0.00313778 
r262 1037 134 0.0652174 
r263 124 955 0.00313778 
r264 1039 124 0.0652174 
r265 907 84 0.00313778 
r266 1032 84 0.0652174 
r267 74 934 0.00313778 
r268 1034 74 0.0652174 
r269 34 882 0.0126027 
r270 880 34 0.0131507 
r271 1027 34 0.0652174 
r272 24 907 0.00313778 
r273 1029 24 0.0652174 
r274 10 764 0.250407 
r275 10 688 0.0473573 
.ends

.subckt PM_PC3B03D%VSS 587 773 804 826 851 856 869 871 876
c0 876 0 92.2959f
c1 869 0 57.1817f
c2 854 0 2.37405f
c3 851 0 0.00368951f
c4 848 0 1.24366f
c5 835 0 1.21678f
c6 822 0 1.88726f
c7 815 0 15.6365f
c8 801 0 1.45504f
c9 786 0 25.3164f
c10 784 0 0.0842555f
c11 783 0 0.0657505f
c12 782 0 7.79604f
c13 780 0 0.269279f
c14 777 0 0.0372194f
c15 773 0 4.21811f
c16 770 0 0.198007f
c17 768 0 0.849344f
c18 765 0 10.4155f
c19 758 0 8.74316f
c20 755 0 0.253082f
c21 754 0 0.0998472f
c22 753 0 1.91336f
c23 629 0 2.25025f
c24 625 0 2.49124f
c25 620 0 1.8723f
c26 618 0 0.255511f
c27 616 0 0.276497f
c28 613 0 26.6344f
c29 607 0 0.816164f
c30 606 0 6.34069f
c31 600 0 2.03915f
c32 594 0 0.137389f
c33 593 0 2.4894f
c34 592 0 0.154374f
c35 591 0 2.26457f
c36 587 0 0.00279637f
c37 539 0 0.162892f
c38 537 0 0.72248f
c39 535 0 0.203897f
c40 510 0 2.94312f
c41 496 0 3.05957f
c42 494 0 0.031054f
c43 491 0 0.729043f
c44 490 0 7.74042f
c45 489 0 0.203811f
c46 474 0 5.70515f
c47 471 0 3.25514f
r48 871 874 0.000703354 
r49 867 869 0.00318245 
r50 866 867 0.00119641 
r51 865 866 0.0758524 
r52 864 865 0.0344168 
r53 863 864 0.167059 
r54 862 863 0.0871386 
r55 861 862 0.0414357 
r56 860 861 0.0141176 
r57 859 860 0.089651 
r58 856 859 0.00438684 
r59 854 867 0.461538 
r60 848 851 1.28857 
r61 848 865 1.5 
r62 842 863 0.0535714 
r63 840 861 1.5 
r64 840 842 1.612 
r65 835 838 0.045 
r66 835 862 0.666667 
r67 829 866 0.428571 
r68 826 829 0.189 
r69 824 876 0.000702051 
r70 874 824 0.0832563 
r71 822 824 0.131579 
r72 822 826 0.013 
r73 819 820 0.56934 
r74 818 819 1.12447 
r75 815 818 0.628223 
r76 815 864 0.3 
r77 807 859 0.428571 
r78 804 807 0.189 
r79 801 804 0.013 
r80 801 874 0.131579 
r81 782 842 2.8715 
r82 782 783 0.0338756 
r83 786 779 1 
r84 779 780 0.0155975 
r85 777 840 1.283 
r86 776 784 0.0338756 
r87 775 783 0.0338756 
r88 773 846 2.59036 
r89 844 773 1.07807 
r90 772 784 0.00880368 
r91 772 773 0.958 
r92 771 783 0.00880368 
r93 771 773 0.986 
r94 780 770 0.0632911 
r95 770 768 0.0574488 
r96 765 784 0.0338756 
r97 764 777 0.0448201 
r98 761 854 1.518 
r99 760 854 0.426 
r100 758 846 1.08482 
r101 755 844 1.06072 
r102 754 773 3.1035 
r103 753 754 0.0448201 
r104 753 764 2.13041 
r105 765 631 0.733 
r106 773 631 1.93 
r107 629 788 3 
r108 844 625 1 
r109 788 620 0.24 
r110 819 620 1.5 
r111 631 618 3 
r112 818 618 3 
r113 616 846 3 
r114 820 616 3 
r115 613 812 1.1314 
r116 613 860 0.125 
r117 612 625 0.0075 
r118 634 612 0.056 
r119 812 612 0.24 
r120 608 786 0.9662 
r121 608 634 0.02 
r122 607 776 0.5005 
r123 761 607 0.0446983 
r124 606 775 0.5005 
r125 760 606 0.0446983 
r126 605 629 0.830244 
r127 604 629 0.573659 
r128 599 600 1.37048 
r129 594 605 0.0448242 
r130 594 595 0.678222 
r131 593 600 0.0447675 
r132 593 595 0.650667 
r133 592 604 0.0446983 
r134 591 599 0.0447067 
r135 591 592 1.45854 
r136 838 587 0.31875 
r137 538 539 0.147619 
r138 534 535 0.14988 
r139 758 534 0.0380723 
r140 531 533 0.143333 
r141 755 530 0.0385542 
r142 528 530 0.14506 
r143 773 527 0.159 
r144 510 773 0.159 
r145 509 539 0.02 
r146 509 527 1.247 
r147 508 535 0.02 
r148 508 510 1.243 
r149 773 507 0.192 
r150 505 773 0.192 
r151 504 505 0.342 
r152 773 504 0.192 
r153 502 773 0.192 
r154 501 502 0.342 
r155 773 501 0.192 
r156 499 773 0.192 
r157 498 499 0.342 
r158 773 498 0.192 
r159 496 773 0.192 
r160 495 538 0.02 
r161 495 507 1.214 
r162 494 537 0.04 
r163 494 496 0.243 
r164 492 534 0.02 
r165 492 537 0.938734 
r166 779 491 0.102486 
r167 490 538 0.0380952 
r168 490 491 4.80524 
r169 489 768 0.555238 
r170 489 533 0.0380952 
r171 773 485 0.159 
r172 483 773 0.159 
r173 482 483 0.408 
r174 773 482 0.159 
r175 480 773 0.159 
r176 479 480 0.408 
r177 773 479 0.159 
r178 477 773 0.159 
r179 476 477 0.408 
r180 773 476 0.159 
r181 474 773 0.159 
r182 473 533 0.02 
r183 473 485 1.247 
r184 472 530 0.02 
r185 472 474 1.243 
r186 471 531 0.02 
r187 470 528 0.02 
r188 470 471 4.69271 
.ends

.subckt PM_PC3B03D%U28_U42_r1 149 154 159 164 169 174 188
c0 301 0 0.256896f
c1 297 0 0.130993f
c2 295 0 0.458247f
c3 290 0 0.459063f
c4 281 0 2.8268f
c5 267 0 0.46935f
c6 262 0 0.712979f
c7 261 0 0.670736f
c8 256 0 0.304369f
c9 254 0 0.273588f
c10 252 0 0.0792102f
c11 251 0 0.329567f
c12 248 0 6.54958f
c13 242 0 1.16697f
c14 241 0 0.15976f
c15 240 0 1.16995f
c16 239 0 0.16201f
c17 238 0 9.0818f
c18 237 0 0.287701f
c19 235 0 0.606217f
c20 231 0 0.136486f
c21 225 0 0.0903556f
c22 217 0 0.171308f
c23 211 0 0.680566f
c24 203 0 0.534966f
c25 195 0 0.535215f
c26 189 0 0.300179f
c27 188 0 0.278026f
c28 181 0 0.163718f
c29 180 0 0.607807f
c30 179 0 0.168943f
c31 178 0 0.608149f
c32 177 0 0.169158f
c33 176 0 0.538598f
c34 174 0 3.10391f
c35 169 0 3.04886f
c36 164 0 3.04886f
c37 159 0 3.04886f
c38 154 0 3.04886f
c39 149 0 3.10219f
r40 269 301 0.00341463 
r41 267 269 3 
r42 264 295 0.00292683 
r43 292 264 0.0526829 
r44 262 264 1.5 
r45 259 290 0.00536585 
r46 287 259 0.0502439 
r47 257 259 1.5 
r48 257 261 0.0965568 
r49 255 267 0.05061 
r50 255 256 0.662857 
r51 254 267 0.05061 
r52 253 254 0.202353 
r53 251 256 0.0446983 
r54 251 252 0.352857 
r55 248 297 6 
r56 246 252 0.0448488 
r57 246 248 6.78194 
r58 262 242 0.117875 
r59 242 261 1.448 
r60 257 240 0.115897 
r61 240 241 1.452 
r62 238 253 0.0487211 
r63 238 239 10.986 
r64 283 237 0.0521951 
r65 235 237 3 
r66 234 241 0.062236 
r67 234 235 0.06528 
r68 233 239 0.062236 
r69 233 235 0.13632 
r70 229 297 0.130323 
r71 228 231 0.153548 
r72 228 229 0.02 
r73 225 281 6 
r74 223 231 0.02 
r75 223 225 0.132903 
r76 222 281 3.99613 
r77 221 222 0.026898 
r78 217 221 0.10143 
r79 217 188 0.106667 
r80 181 211 1.85294 
r81 180 203 5.05882 
r82 179 203 5.05882 
r83 178 195 5.05882 
r84 177 195 5.05882 
r85 176 189 1.85294 
r86 171 181 3.88985 
r87 171 174 183.96 
r88 166 180 3.88985 
r89 166 169 183.96 
r90 161 179 3.88985 
r91 161 164 183.96 
r92 156 178 3.88985 
r93 156 159 183.96 
r94 151 177 3.88985 
r95 151 154 183.96 
r96 146 176 3.88985 
r97 146 149 183.96 
r98 211 99 0.00142683 
r99 301 99 3 
r100 203 81 0.00142683 
r101 295 81 3 
r102 195 56 0.00142683 
r103 290 56 3 
r104 203 45 0.0277856 
r105 292 45 3 
r106 189 20 0.00142683 
r107 283 20 3 
r108 195 9 0.0277856 
r109 287 9 3 
.ends

.subckt PM_PC3B03D%U15_ngate 70 77 84 91 99 107 143 145 193 199
c0 245 0 16.604f
c1 237 0 0.535284f
c2 236 0 0.794406f
c3 233 0 0.0955656f
c4 232 0 5.29594f
c5 230 0 0.197575f
c6 228 0 6.57272f
c7 225 0 0.103554f
c8 211 0 2.99129f
c9 201 0 0.605798f
c10 200 0 0.168817f
c11 199 0 3.04886f
c12 193 0 3.04886f
c13 153 0 0.431532f
c14 145 0 0.595965f
c15 143 0 0.831149f
c16 140 0 0.149707f
c17 137 0 0.145618f
c18 128 0 0.138124f
c19 125 0 1.34438f
c20 124 0 0.136955f
c21 121 0 0.813533f
c22 116 0 3.13564f
c23 114 0 0.0428228f
c24 113 0 0.0461791f
c25 112 0 0.0261329f
c26 111 0 0.0261329f
c27 107 0 0.998684f
c28 104 0 0.124461f
c29 103 0 1.65373f
c30 99 0 1.54001f
c31 96 0 0.0767532f
c32 95 0 0.252995f
c33 91 0 1.35208f
c34 88 0 0.352496f
c35 84 0 1.42004f
c36 81 0 0.249179f
c37 77 0 1.459f
c38 75 0 0.0502871f
c39 74 0 0.28959f
c40 70 0 1.43018f
c41 26 0 0.451158f
r42 244 245 0.397333 
r43 243 244 5.55867 
r44 240 243 1.948 
r45 234 236 0.0733484 
r46 234 252 1.5 
r47 232 236 0.0813046 
r48 232 233 5.576 
r49 240 230 6 
r50 228 230 6 
r51 227 233 0.0447005 
r52 227 228 6.41185 
r53 223 225 0.0755556 
r54 216 223 0.02 
r55 237 208 0.00142683 
r56 205 237 0.0277856 
r57 201 237 5.05882 
r58 200 237 5.05882 
r59 195 201 3.88985 
r60 195 199 183.96 
r61 190 200 3.88985 
r62 190 193 183.96 
r63 140 145 60 
r64 140 160 3.77986 
r65 137 143 85 
r66 137 153 3.53757 
r67 128 166 0.0370021 
r68 225 128 6 
r69 125 221 2.59143 
r70 125 245 6 
r71 221 124 6 
r72 216 121 1.53143 
r73 121 244 6 
r74 153 120 0.3325 
r75 211 120 6 
r76 117 214 2.2825 
r77 211 117 1.32 
r78 117 243 6 
r79 116 160 3.7825 
r80 214 116 6 
r81 113 124 0.0613333 
r82 106 107 1.2375 
r83 105 114 0.0310989 
r84 104 106 0.044713 
r85 104 105 0.152258 
r86 103 114 0.0112231 
r87 102 113 0.0447675 
r88 102 103 3.52 
r89 166 99 1.6275 
r90 97 99 1.28 
r91 95 114 0.0310989 
r92 95 96 0.301935 
r93 90 96 0.044713 
r94 90 91 1.2375 
r95 89 112 0.0338756 
r96 88 97 0.0446983 
r97 88 89 0.51 
r98 83 112 0.00880368 
r99 83 84 1.28 
r100 82 111 0.0338756 
r101 81 112 0.0338756 
r102 81 82 0.43 
r103 76 111 0.00880368 
r104 76 77 1.415 
r105 74 111 0.0338756 
r106 74 75 0.51 
r107 69 75 0.0446983 
r108 69 70 1.415 
r109 252 26 0.000487805 
r110 26 208 3 
r111 8 252 0.055122 
r112 8 205 3 
.ends

.subckt PM_PC3B03D%U17_ngate2 54 64 69 76 131 137
c0 176 0 0.535425f
c1 175 0 1.11466f
c2 172 0 0.0642238f
c3 171 0 6.71519f
c4 167 0 4.35213f
c5 165 0 0.548102f
c6 155 0 0.14037f
c7 151 0 0.186791f
c8 141 0 0.200898f
c9 139 0 0.60832f
c10 138 0 0.168772f
c11 137 0 3.04886f
c12 131 0 3.04886f
c13 108 0 0.313586f
c14 103 0 12.6716f
c15 93 0 0.684216f
c16 92 0 3.16115f
c17 87 0 3.09027f
c18 86 0 0.13299f
c19 84 0 0.0343464f
c20 81 0 0.0822206f
c21 80 0 0.233076f
c22 76 0 0.47622f
c23 74 0 0.0284138f
c24 73 0 0.038923f
c25 69 0 0.493641f
c26 64 0 1.5327f
c27 62 0 0.0689673f
c28 61 0 0.123067f
c29 59 0 0.66055f
c30 58 0 3.58758f
c31 54 0 2.27669f
c32 26 0 0.448358f
r33 173 175 0.110025 
r34 173 184 1.5 
r35 171 175 0.0811344 
r36 171 172 7.098 
r37 167 169 6 
r38 166 172 0.0446983 
r39 166 167 5.048 
r40 165 169 0.597143 
r41 157 160 0.58625 
r42 155 157 0.0448391 
r43 155 156 0.0717241 
r44 151 153 6 
r45 150 165 0.0446983 
r46 150 151 0.198571 
r47 176 147 0.00142683 
r48 144 176 0.0277856 
r49 141 153 0.10375 
r50 139 176 5.05882 
r51 138 176 5.05882 
r52 133 139 3.88985 
r53 133 137 183.96 
r54 128 138 3.88985 
r55 128 131 183.96 
r56 107 108 0.245 
r57 141 107 0.04 
r58 93 163 0.742857 
r59 93 103 6 
r60 163 92 6 
r61 90 103 1.12267 
r62 160 90 6 
r63 87 160 2.98125 
r64 87 108 6 
r65 156 86 6 
r66 82 92 4.21429 
r67 81 86 0.0468966 
r68 84 76 0.545714 
r69 74 84 0.0464898 
r70 73 82 0.0464898 
r71 73 74 0.0430769 
r72 68 69 0.79 
r73 63 64 1.745 
r74 61 63 0.0451268 
r75 61 62 0.124211 
r76 60 80 0.0321994 
r77 59 68 0.0447517 
r78 59 60 0.647059 
r79 58 62 0.0451268 
r80 57 81 0.0448391 
r81 57 58 5.505 
r82 53 107 0.02 
r83 53 54 2.2575 
r84 52 80 0.010241 
r85 52 54 1.98 
r86 184 26 0.00195122 
r87 26 147 3 
r88 8 184 0.0536585 
r89 8 144 3 
.ends

.subckt PM_PC3B03D%U28_ngate3 51 59 82 88
c0 123 0 14.3517f
c1 117 0 0.535238f
c2 116 0 1.3548f
c3 112 0 0.197656f
c4 110 0 0.298515f
c5 109 0 0.0783866f
c6 108 0 0.0753649f
c7 107 0 8.36749f
c8 106 0 4.88531f
c9 100 0 2.68925f
c10 90 0 0.607807f
c11 89 0 0.168829f
c12 88 0 3.04886f
c13 82 0 3.04886f
c14 59 0 0.00729216f
c15 51 0 1.71078f
c16 44 0 3.2228f
c17 26 0 0.440202f
r18 120 123 1.17067 
r19 114 116 0.143664 
r20 114 130 1.5 
r21 120 112 6 
r22 110 112 6 
r23 109 110 0.231 
r24 107 116 0.0818121 
r25 107 108 8.793 
r26 106 109 0.0446983 
r27 105 108 0.0446983 
r28 105 106 5.562 
r29 117 97 0.00142683 
r30 94 117 0.0277856 
r31 90 117 5.05882 
r32 89 117 5.05882 
r33 84 90 3.88985 
r34 84 88 183.96 
r35 79 89 3.88985 
r36 79 82 183.96 
r37 51 48 1.59714 
r38 100 48 6 
r39 45 103 3.29429 
r40 100 45 0.874286 
r41 45 123 6 
r42 44 59 4.93143 
r43 103 44 6 
r44 130 26 0.00292683 
r45 26 97 3 
r46 8 130 0.0526829 
r47 8 94 3 
.ends

.subckt PM_PC3B03D%net_m71_VDDO_res 7 33
c0 33 0 1.65379f
c1 29 0 0.14408f
c2 17 0 0.183426f
c3 16 0 0.795191f
c4 15 0 1.71629f
c5 14 0 0.0798309f
c6 10 0 0.0756707f
c7 9 0 0.112015f
c8 7 0 0.369295f
r9 16 33 2.05452 
r10 16 17 8.75861 
r11 15 29 66.7742 
r12 14 29 60.5806 
r13 11 15 3.35663 
r14 11 17 11.5758 
r15 10 14 3.35347 
r16 9 10 6.625 
r17 6 9 4.5965 
r18 6 7 4.56364 
.ends

.subckt PM_PC3B03D%VDDO 321 761 766 773 780 787 794 801 808 914 931 934 943 948
+ 955 981 1044 1050 1370 1374 1377 1382 1389 1396 1417 1445 1456 1464 1472 1478
+ 1484 1490 1496 1502 1508 1514 1565 1581 1610 1615
c0 1615 0 21.1358f
c1 1607 0 4.29165f
c2 1598 0 6.89048f
c3 1589 0 8.851f
c4 1584 0 6.02232f
c5 1581 0 52.6833f
c6 1561 0 3.00295f
c7 1527 0 9.73032f
c8 1514 0 1.39365f
c9 1508 0 2.72268f
c10 1502 0 1.37591f
c11 1496 0 1.72366f
c12 1490 0 2.07585f
c13 1484 0 0.814691f
c14 1478 0 1.88775f
c15 1472 0 2.50375f
c16 1469 0 5.4605f
c17 1453 0 0.505473f
c18 1449 0 30.9521f
c19 1448 0 1.97524f
c20 1445 0 65.1028f
c21 1444 0 1.61686f
c22 1395 0 52.7638f
c23 1385 0 0.697612f
c24 1384 0 1.41036f
c25 1382 0 3.00838f
c26 1374 0 2.51855f
c27 1362 0 0.132328f
c28 1352 0 0.331843f
c29 1348 0 0.211996f
c30 1342 0 0.234896f
c31 1332 0 0.619014f
c32 1328 0 0.300027f
c33 1324 0 0.616262f
c34 1318 0 3.05345f
c35 1316 0 0.692846f
c36 1311 0 1.62924f
c37 1306 0 2.49269f
c38 1302 0 0.0453791f
c39 1301 0 0.666269f
c40 1298 0 0.230127f
c41 1258 0 9.76182f
c42 1249 0 0.886494f
c43 1070 0 0.341159f
c44 1068 0 3.49386f
c45 1054 0 11.8635f
c46 1050 0 0.0820249f
c47 1044 0 0.480852f
c48 1003 0 4.04657f
c49 998 0 0.474075f
c50 997 0 0.125713f
c51 995 0 0.288987f
c52 991 0 0.0321078f
c53 989 0 8.43487f
c54 988 0 3.43153f
c55 983 0 1.01464f
c56 980 0 0.0193183f
c57 978 0 0.0208492f
c58 977 0 5.83882f
c59 975 0 0.195578f
c60 965 0 0.0967967f
c61 962 0 0.0596675f
c62 961 0 3.19809f
c63 960 0 1.12897f
c64 955 0 1.44047f
c65 952 0 0.451293f
c66 948 0 1.37806f
c67 934 0 0.336966f
c68 931 0 0.671064f
c69 925 0 0.0312283f
c70 924 0 0.967804f
c71 914 0 1.45951f
c72 813 0 7.25248f
c73 801 0 0.00989968f
c74 794 0 0.00989968f
c75 787 0 0.0234465f
c76 780 0 0.0106158f
c77 773 0 0.0106158f
c78 766 0 0.00828265f
c79 761 0 7.66279f
c80 733 0 12.0948f
c81 731 0 19.7809f
c82 729 0 19.7809f
c83 727 0 19.6269f
c84 725 0 19.7809f
c85 723 0 19.7804f
c86 721 0 11.8819f
c87 695 0 0.114944f
c88 694 0 7.03459f
c89 691 0 0.104443f
c90 690 0 6.33357f
c91 321 0 0.614021f
c92 17 0 0.486838f
c93 16 0 6.73982f
c94 7 0 0.152029f
c95 6 0 6.75738f
r96 1610 1613 0.00394881 
r97 1607 1608 0.956244 
r98 1600 1601 0.279231 
r99 1598 1600 0.266538 
r100 1591 1592 0.273962 
r101 1589 1591 0.261509 
r102 1585 1586 1.79477 
r103 1584 1585 0.000373832 
r104 1578 1579 0.321961 
r105 1577 1578 0.0205664 
r106 1576 1577 0.0291503 
r107 1575 1576 0.0440959 
r108 1574 1575 0.0124619 
r109 1573 1574 0.0360784 
r110 1572 1573 0.0354684 
r111 1571 1572 0.0127233 
r112 1570 1571 0.0260566 
r113 1563 1581 0.00304139 
r114 1579 1563 0.00174292 
r115 1561 1563 0.461538 
r116 1522 1524 1.29806 
r117 1517 1578 0.6 
r118 1514 1517 0.4475 
r119 1511 1577 0.6 
r120 1508 1511 1.6625 
r121 1505 1576 0.666667 
r122 1502 1505 0.365 
r123 1499 1575 0.545455 
r124 1496 1499 1.4825 
r125 1493 1574 0.545455 
r126 1490 1493 1.63 
r127 1487 1573 0.75 
r128 1484 1487 0.1575 
r129 1481 1572 0.75 
r130 1478 1481 1.1525 
r131 1475 1571 0.5 
r132 1472 1475 1.455 
r133 1565 1471 0.00305011 
r134 1469 1471 0.461538 
r135 1464 1607 0.2 
r136 1460 1615 0.0039415 
r137 1613 1460 0.467422 
r138 1458 1460 0.5 
r139 1456 1458 0.181 
r140 1453 1456 0.17 
r141 1453 1579 1.5 
r142 1450 1451 0.5433 
r143 1449 1450 0.2247 
r144 1448 1464 0.0528252 
r145 1448 1451 0.099 
r146 1608 1444 0.698216 
r147 1442 1444 0.2 
r148 1442 1445 0.0136564 
r149 1601 1441 0.279231 
r150 1441 1439 0.279231 
r151 1439 1437 0.279231 
r152 1437 1435 0.266538 
r153 1433 1435 1.5 
r154 1433 1437 1.5 
r155 1433 1439 1.5 
r156 1433 1441 1.5 
r157 1433 1442 0.0314855 
r158 1592 1431 0.273962 
r159 1431 1429 0.273962 
r160 1429 1427 0.273962 
r161 1427 1425 0.261509 
r162 1423 1425 1.5 
r163 1423 1427 1.5 
r164 1423 1429 1.5 
r165 1423 1431 1.5 
r166 1586 1422 0.000747664 
r167 1420 1422 0.2 
r168 1420 1423 0.0334274 
r169 1417 1420 0.01361 
r170 1411 1600 1.5 
r171 1411 1598 1.5 
r172 1411 1601 1.5 
r173 1409 1411 0.0694058 
r174 1403 1591 1.5 
r175 1403 1589 1.5 
r176 1403 1409 0.0805639 
r177 1403 1592 1.5 
r178 1399 1584 0.2 
r179 1399 1403 0.0404834 
r180 1396 1399 0.0165962 
r181 1395 1464 0.0245381 
r182 1395 1411 0.0330312 
r183 1392 1613 0.5 
r184 1389 1392 0.181 
r185 1387 1570 0.0183007 
r186 1471 1387 0.00174292 
r187 1385 1387 1.5 
r188 1385 1389 0.17 
r189 1384 1449 0.5293 
r190 1380 1382 0.0526456 
r191 1377 1380 0.0552365 
r192 1360 1362 0.12 
r193 1354 1357 3 
r194 1527 1354 0.0677429 
r195 1352 1354 3 
r196 1527 1344 0.1116 
r197 1558 1344 0.0028 
r198 1342 1344 6 
r199 1321 1522 6 
r200 1316 1318 6 
r201 1316 1321 0.752258 
r202 1313 1362 0.02 
r203 1310 1360 0.02 
r204 1310 1311 2.92286 
r205 1303 1318 2.907 
r206 1301 1303 0.0448005 