* File: pc3d11d.dist.sp.pex
* Created: Sun Jul  4 12:29:18 2010
* Program "Calibre xRC"
* Version "v2008.4_19.14"
* Nominal Temperature: 27C
* Circuit Temperature: 27C
* 
.subckt PM_PC3D11D%net_m33_VDDO_res 8 39
c0 39 0 2.05234f
c1 34 0 1.2955f
c2 18 0 0.0775386f
c3 15 0 0.164126f
c4 10 0 0.0679009f
c5 9 0 0.641638f
c6 8 0 0.338559f
c7 6 0 0.185541f
r8 36 39 3.87662 
r9 17 34 43.5 
r10 16 34 49.5 
r11 18 15 16.5 
r12 11 18 4.13452 
r13 10 16 3.35237 
r14 9 15 3.35237 
r15 9 10 56.025 
r16 11 8 6.95493 
r17 7 36 1.62175 
r18 7 8 5.625 
r19 6 17 3.35237 
r20 6 8 5.625 
.ends

.subckt PM_PC3D11D%U14_padr 12 61 69 131 133 135 145 185
c0 272 0 9.29895f
c1 267 0 1.97689f
c2 265 0 15.7175f
c3 256 0 0.170861f
c4 253 0 5.64296f
c5 251 0 0.501133f
c6 249 0 0.0674659f
c7 248 0 0.207306f
c8 247 0 0.394066f
c9 240 0 15.9368f
c10 233 0 0.755137f
c11 227 0 0.86509f
c12 221 0 1.87564f
c13 216 0 0.287706f
c14 214 0 0.0602619f
c15 213 0 0.297084f
c16 206 0 0.325874f
c17 200 0 0.596936f
c18 197 0 0.428337f
c19 192 0 0.0766032f
c20 191 0 0.489946f
c21 188 0 0.66192f
c22 186 0 0.704195f
c23 185 0 5.5788e-21
c24 160 0 0.0871415f
c25 154 0 0.0816717f
c26 145 0 1.85416f
c27 143 0 15.9576f
c28 135 0 1.12834f
c29 133 0 0.590498f
c30 131 0 1.02345f
c31 101 0 0.403436f
c32 98 0 0.563805f
c33 97 0 0.375602f
c34 94 0 2.0648f
c35 93 0 0.643347f
c36 88 0 0.435871f
c37 85 0 0.250487f
c38 84 0 0.0273462f
c39 83 0 0.0754036f
c40 79 0 0.0937091f
c41 75 0 0.30782f
c42 73 0 0.0443674f
c43 72 0 0.113991f
c44 69 0 1.26501f
c45 66 0 0.0532954f
c46 65 0 0.356755f
c47 61 0 2.00711f
c48 21 0 0.117916f
c49 20 0 0.033825f
c50 19 0 0.0510441f
c51 18 0 0.0886803f
c52 16 0 5.29399f
c53 12 0 1.06478f
r54 261 263 3.984 
r55 272 253 0.185079 
r56 251 253 1.2 
r57 250 251 0.482857 
r58 248 250 0.0446983 
r59 248 249 0.125714 
r60 247 249 0.0446983 
r61 242 265 6 
r62 240 242 0.172857 
r63 233 267 6 
r64 231 256 0.15871 
r65 231 233 0.867097 
r66 229 265 1.84133 
r67 263 229 9.152 
r68 227 229 6 
r69 256 227 1.56387 
r70 215 216 0.5875 
r71 213 216 0.0446983 
r72 213 214 0.3675 
r73 209 214 0.0446983 
r74 206 215 0.0446983 
r75 206 207 0.4075 
r76 199 267 2.38452 
r77 191 199 0.0446983 
r78 191 192 0.619355 
r79 188 192 0.0456388 
r80 187 197 0.0200258 
r81 187 188 0.791 
r82 186 272 0.18836 
r83 185 197 0.00412903 
r84 142 143 1.07733 
r85 123 135 168.333 
r86 123 160 3.6393 
r87 118 133 51.6667 
r88 117 118 1.66667 
r89 110 131 168.333 
r90 154 110 3.6393 
r91 221 105 6 
r92 102 224 0.8025 
r93 221 102 2.8475 
r94 102 143 6 
r95 101 160 0.7875 
r96 224 101 6 
r97 98 219 1.2525 
r98 98 263 6 
r99 97 154 0.7825 
r100 219 97 6 
r101 94 211 0.8 
r102 209 94 2.1725 
r103 94 142 6 
r104 211 93 6 
r105 145 91 1.5325 
r106 207 91 6 
r107 88 204 0.482667 
r108 88 261 6 
r109 87 142 3.112 
r110 204 87 6 
r111 85 105 0.05 
r112 81 83 0.12 
r113 81 93 0.8825 
r114 80 145 1.3775 
r115 79 85 0.0446983 
r116 78 84 0.0338756 
r117 78 79 0.1875 
r118 75 117 1.16667 
r119 74 84 0.0338756 
r120 74 75 0.245 
r121 72 84 0.00880368 
r122 72 73 0.25 
r123 68 73 0.0446983 
r124 68 69 1.2575 
r125 67 69 1.3775 
r126 66 80 0.0447588 
r127 65 67 0.0447588 
r128 65 66 0.544 
r129 83 61 2.375 
r130 200 23 0.30381 
r131 21 23 3 
r132 20 21 0.109474 
r133 257 19 0.0446983 
r134 20 18 0.0456991 
r135 18 19 0.147143 
r136 257 16 10.3129 
r137 16 240 2 
r138 13 247 0.407619 
r139 13 200 0.0446983 
r140 186 12 0.0147368 
.ends

.subckt PM_PC3D11D%VSSO 169 332 495 562 600 604 891 895 902 931 938 950 962 964
+ 969 973 980 986 995 1002 1008 1020 1064 1070 1074 1080
c0 1080 0 31.407f
c1 1067 0 3.52205f
c2 1064 0 27.3141f
c3 1055 0 7.92488f
c4 1053 0 6.96209f
c5 1047 0 6.96173f
c6 1042 0 6.96175f
c7 1036 0 6.96188f
c8 1031 0 6.96027f
c9 1020 0 0.00199756f
c10 1015 0 8.95235f
c11 1008 0 0.319472f
c12 1002 0 0.327268f
c13 986 0 1.4633f
c14 973 0 0.842775f
c15 969 0 1.45157f
c16 967 0 1.97902f
c17 964 0 0.00104108f
c18 962 0 8.25608e-19
c19 960 0 8.96457f
c20 948 0 7.84947f
c21 944 0 1.27875f
c22 934 0 1.65601f
c23 931 0 58.2621f
c24 898 0 1.33521f
c25 895 0 10.6369f
c26 888 0 0.193061f
c27 880 0 2.34752f
c28 878 0 0.0825798f
c29 877 0 0.199022f
c30 875 0 0.0941861f
c31 873 0 1.34808f
c32 872 0 0.0220246f
c33 869 0 0.107983f
c34 868 0 0.0484324f
c35 867 0 1.50948f
c36 865 0 0.0594287f
c37 864 0 0.293756f
c38 856 0 12.1933f
c39 855 0 0.725625f
c40 852 0 2.24828f
c41 848 0 0.948476f
c42 842 0 0.708327f
c43 840 0 3.24323f
c44 838 0 0.383003f
c45 837 0 0.713156f
c46 836 0 0.297488f
c47 835 0 3.26283f
c48 834 0 0.383249f
c49 833 0 0.0689962f
c50 832 0 0.351455f
c51 799 0 0.122915f
c52 798 0 8.73234f
c53 768 0 0.269574f
c54 764 0 7.03694f
c55 762 0 0.146306f
c56 608 0 0.101304f
c57 604 0 0.369866f
c58 600 0 0.578767f
c59 580 0 0.363647f
c60 578 0 0.13349f
c61 576 0 0.0273477f
c62 574 0 0.237955f
c63 562 0 0.661332f
c64 508 0 5.37124f
c65 410 0 14.0382f
c66 360 0 14.0387f
c67 247 0 14.0387f
c68 197 0 14.0383f
c69 34 0 14.0362f
c70 10 0 0.146306f
r71 1078 1080 0.00282778 
r72 1077 1078 0.355444 
r73 1074 1077 0.00283333 
r74 1069 1071 0.00445269 
r75 1069 1070 0.02 
r76 1067 1069 0.00667904 
r77 1061 1062 0.131123 
r78 1060 1061 0.171016 
r79 1059 1060 0.0394652 
r80 1024 1025 0.0140639 
r81 1019 1020 0.0126606 
r82 1055 1017 0.0113761 
r83 1015 1017 0.0638298 
r84 1012 1062 2 
r85 1008 1012 0.000761905 
r86 1002 1061 2 
r87 989 1060 0.545455 
r88 986 989 0.75 
r89 962 1019 0.013211 
r90 1015 962 0.000917431 
r91 960 962 0.000913242 
r92 960 1024 0.0638298 
r93 949 950 0.02 
r94 948 1024 0.0113242 
r95 946 948 0.0327869 
r96 946 949 0.0186572 
r97 944 946 0.029258 
r98 941 1078 0.357143 
r99 938 941 0.21 
r100 936 1064 0.00544385 
r101 1062 936 0.0327273 
r102 934 936 1 
r103 934 938 0.445 
r104 929 931 0.00612761 
r105 929 1055 0.0327869 
r106 1049 927 0.00301483 
r107 927 1053 0.00301741 
r108 925 927 0.0266667 
r109 925 929 0.0287785 
r110 995 924 0.130435 
r111 924 1047 0.00301741 
r112 1044 924 0.00301741 
r113 922 924 0.0266667 
r114 922 925 0.0242129 
r115 1038 921 0.00301483 
r116 921 1042 0.00301741 
r117 919 921 0.0266667 
r118 919 922 0.0242129 
r119 918 919 0.000615582 
r120 980 917 0.130435 
r121 917 1036 0.00301741 
r122 1033 917 0.00301741 
r123 915 917 0.0266667 
r124 915 918 0.0235973 
r125 1027 914 0.00301483 
r126 914 1031 0.00301741 
r127 912 914 0.0266667 
r128 912 915 0.0242129 
r129 911 944 0.02 
r130 911 912 0.0277012 
r131 949 908 0.427466 
r132 905 1077 0.357143 
r133 902 905 0.21 
r134 900 1073 0.148897 
r135 1071 900 0.0151391 
r136 898 900 1 
r137 898 902 0.445 
r138 887 1059 0.080107 
r139 887 888 0.00185772 
r140 879 888 0.0857909 
r141 879 880 3.63314 
r142 877 880 0.0448303 
r143 877 878 0.199481 
r144 874 878 0.0447008 
r145 874 875 0.0831579 
r146 872 873 0.109474 
r147 868 869 0.135 
r148 867 868 0.0448391 
r149 866 867 2.75862 
r150 864 866 0.044715 
r151 864 865 0.466667 
r152 973 863 0.04 
r153 861 863 0.75 
r154 969 860 0.365 
r155 858 860 0.6 
r156 858 861 0.0226738 
r157 857 1067 0.02 
r158 857 858 0.105134 
r159 856 888 0.00185772 
r160 856 861 0.0460963 
r161 855 865 0.0450432 
r162 1073 855 1.29371 
r163 852 967 6 
r164 872 848 0.0429996 
r165 848 852 0.24 
r166 844 1020 0.230275 
r167 842 1015 0.210275 
r168 841 967 3.78429 
r169 839 964 0.229041 
r170 839 840 0.0863581 
r171 837 960 0.209132 
r172 837 838 0.0863581 
r173 844 835 0.0861375 
r174 835 836 0.132033 
r175 842 834 0.0861375 
r176 832 841 0.0446983 
r177 832 833 0.542857 
r178 829 833 0.0449572 
r179 799 962 0.128 
r180 798 836 0.0473573 
r181 798 962 0.126 
r182 768 799 0.0473573 
r183 840 768 0.132033 
r184 764 962 0.126 
r185 763 962 0.128 
r186 762 763 0.0473573 
r187 762 838 0.250407 
r188 580 604 0.370526 
r189 1059 580 1.5 
r190 578 608 0.04 
r191 875 578 3 
r192 576 600 0.0494737 
r193 873 576 2 
r194 829 574 0.2775 
r195 869 574 6 
r196 608 562 0.1888 
r197 511 895 0.0419737 
r198 891 511 0.0413851 
r199 918 511 0.00128205 
r200 908 508 2.21804 
r201 508 1071 0.6 
r202 927 495 0.130435 
r203 995 410 0.00313778 
r204 1047 410 0.0652174 
r205 495 400 0.0031351 
r206 1049 400 0.0652174 
r207 360 495 0.00314046 
r208 1053 360 0.0652174 
r209 1017 349 0.0141284 
r210 349 1019 0.0652174 
r211 921 332 0.130435 
r212 980 247 0.00313778 
r213 1036 247 0.0652174 
r214 332 237 0.0031351 
r215 1038 237 0.0652174 
r216 197 332 0.00314046 
r217 1042 197 0.0652174 
r218 187 995 0.00313778 
r219 1044 187 0.0652174 
r220 914 169 0.130435 
r221 84 964 0.0126027 
r222 962 84 0.0131507 
r223 1025 84 0.0652174 
r224 169 74 0.0031351 
r225 1027 74 0.0652174 
r226 34 169 0.00314046 
r227 1031 34 0.0652174 
r228 24 980 0.00313778 
r229 1033 24 0.0652174 
r230 10 834 0.250407 
r231 10 764 0.0473573 
.ends

.subckt PM_PC3D11D%VSS 813 884 906 945 958 970 973 979
c0 979 0 88.7605f
c1 970 0 49.3962f
c2 957 0 54.944f
c3 955 0 2.3768f
c4 942 0 0.609139f
c5 923 0 2.51215f
c6 917 0 12.4536f
c7 916 0 1.77825f
c8 903 0 1.88751f
c9 895 0 15.6547f
c10 881 0 1.45648f
c11 878 0 2.50793f
c12 841 0 25.3375f
c13 828 0 0.0691108f
c14 827 0 0.0657389f
c15 826 0 5.94789f
c16 825 0 0.745402f
c17 824 0 0.269279f
c18 821 0 0.0372194f
c19 813 0 2.14915f
c20 811 0 6.81501f
c21 810 0 0.218207f
c22 808 0 0.69473f
c23 801 0 8.61447f
c24 799 0 0.255493f
c25 798 0 0.0856199f
c26 797 0 1.18476f
c27 692 0 1.98507f
c28 684 0 1.40824f
c29 682 0 0.243262f
c30 680 0 0.271526f
c31 677 0 25.0969f
c32 672 0 1.0863f
c33 671 0 6.52093f
c34 665 0 2.03682f
c35 661 0 0.135881f
c36 660 0 2.4667f
c37 659 0 0.117466f
c38 658 0 2.25951f
c39 573 0 0.162892f
c40 571 0 0.72248f
c41 569 0 0.203897f
c42 544 0 2.94311f
c43 530 0 3.05953f
c44 528 0 0.031054f
c45 524 0 6.24623f
c46 523 0 0.161087f
c47 508 0 5.68764f
c48 505 0 3.2536f
r49 977 979 0.000702051 
r50 976 977 0.0832563 
r51 973 976 0.000703354 
r52 969 970 0.00318245 
r53 966 967 0.167059 
r54 965 966 0.0632503 
r55 964 965 0.065324 
r56 963 964 0.0141176 
r57 962 963 0.00135593 
r58 955 969 0.461538 
r59 949 966 0.0535714 
r60 947 964 1.5 
r61 947 949 1.612 
r62 942 945 0.045 
r63 942 965 0.666667 
r64 923 962 0.6 
r65 921 957 0.0297924 
r66 921 923 3.23529 
r67 916 957 0.0158586 
r68 916 917 1.0295 
r69 910 969 0.00119641 
r70 967 910 0.110269 
r71 908 910 0.428571 
r72 906 908 0.189 
r73 903 906 0.013 
r74 903 977 0.131579 
r75 899 900 0.570964 
r76 898 899 1.12284 
r77 895 898 0.628223 
r78 895 967 0.3 
r79 888 962 0.0882951 
r80 958 888 0.00438684 
r81 886 888 0.428571 
r82 884 886 0.189 
r83 881 884 0.013 
r84 881 976 0.131579 
r85 951 878 1 
r86 840 875 0.02 
r87 840 841 0.9662 
r88 826 949 2.7305 
r89 826 827 0.0338756 
r90 821 947 1.283 
r91 820 828 0.0338756 
r92 819 827 0.0338756 
r93 816 828 0.00880368 
r94 815 827 0.00880368 
r95 813 870 2.59036 
r96 951 813 1.07807 
r97 816 813 0.88 
r98 815 813 1.064 
r99 812 957 0.0158586 
r100 812 813 1.9975 
r101 811 828 0.0338756 
r102 824 810 0.0632911 
r103 810 808 0.0574488 
r104 807 821 0.0448201 
r105 804 955 1.518 
r106 803 955 0.426 
r107 801 870 1.08482 
r108 799 951 1.06072 
r109 798 917 0.0425 
r110 797 798 0.0448201 
r111 797 807 2.13041 
r112 811 694 0.592 
r113 813 694 1.93 
r114 692 863 3 
r115 863 684 0.29193 
r116 899 684 1.5 
r117 694 682 3 
r118 898 682 3 
r119 680 870 3 
r120 900 680 3 
r121 677 892 1.1314 
r122 677 963 0.125 
r123 676 878 0.0075 
r124 875 676 0.056 
r125 892 676 0.24 
r126 674 825 0.102486 
r127 674 824 0.0155975 
r128 841 674 1 
r129 672 820 0.6415 
r130 804 672 0.0446983 
r131 671 819 0.6415 
r132 803 671 0.0446983 
r133 670 692 0.831219 
r134 669 692 0.572683 
r135 664 665 1.37048 
r136 661 670 0.0448242 
r137 661 662 0.678222 
r138 660 665 0.0447675 
r139 660 662 0.650667 
r140 659 669 0.0446983 
r141 658 664 0.0447067 
r142 658 659 1.45854 
r143 572 573 0.147619 
r144 568 569 0.14988 
r145 801 568 0.0380723 
r146 565 567 0.143333 
r147 799 564 0.0385542 
r148 562 564 0.14506 
r149 813 561 0.159 
r150 544 813 0.159 
r151 543 573 0.02 
r152 543 561 1.247 
r153 542 569 0.02 
r154 542 544 1.243 
r155 813 541 0.192 
r156 539 813 0.192 
r157 538 539 0.342 
r158 813 538 0.192 
r159 536 813 0.192 
r160 535 536 0.342 
r161 813 535 0.192 
r162 533 813 0.192 
r163 532 533 0.342 
r164 813 532 0.192 
r165 530 813 0.192 
r166 529 572 0.02 
r167 529 541 1.214 
r168 528 571 0.04 
r169 528 530 0.243 
r170 526 568 0.02 
r171 526 571 0.938734 
r172 524 572 0.0380952 
r173 524 825 4.80524 
r174 523 808 0.555238 
r175 523 567 0.0380952 
r176 813 519 0.159 
r177 517 813 0.159 
r178 516 517 0.408 
r179 813 516 0.159 
r180 514 813 0.159 
r181 513 514 0.408 
r182 813 513 0.159 
r183 511 813 0.159 
r184 510 511 0.408 
r185 813 510 0.159 
r186 508 813 0.159 
r187 507 567 0.02 
r188 507 519 1.247 
r189 506 564 0.02 
r190 506 508 1.243 
r191 505 565 0.02 
r192 504 562 0.02 
r193 504 505 4.69271 
.ends

.subckt PM_PC3D11D%U14_MN4$11_gate 98 103 219 224 340 345 410 415 420 425 430
+ 435 449
c0 612 0 0.264624f
c1 608 0 0.432377f
c2 603 0 0.431723f
c3 598 0 0.431999f
c4 593 0 0.433563f
c5 588 0 0.434391f
c6 576 0 2.53572f
c7 572 0 0.236421f
c8 554 0 0.0501222f
c9 550 0 0.126441f
c10 548 0 1.09628f
c11 543 0 1.10468f
c12 538 0 1.09628f
c13 533 0 1.12251f
c14 529 0 0.847498f
c15 523 0 0.859973f
c16 521 0 0.170165f
c17 519 0 0.402049f
c18 516 0 0.430085f
c19 515 0 0.863899f
c20 514 0 0.804241f
c21 513 0 0.877326f
c22 511 0 0.872867f
c23 505 0 0.156445f
c24 504 0 8.9327f
c25 501 0 7.03755f
c26 499 0 0.14249f
c27 498 0 0.267597f
c28 496 0 0.474738f
c29 492 0 15.6573f
c30 487 0 1.41515f
c31 485 0 0.126896f
c32 480 0 0.113609f
c33 474 0 0.680018f
c34 473 0 0.0631592f
c35 464 0 0.535213f
c36 456 0 0.535717f
c37 450 0 0.300832f
c38 449 0 0.233998f
c39 442 0 0.16744f
c40 441 0 0.607864f
c41 440 0 0.168715f
c42 439 0 0.608092f
c43 438 0 0.169627f
c44 437 0 0.540411f
c45 435 0 3.10111f
c46 430 0 3.04886f
c47 425 0 3.04886f
c48 420 0 3.04886f
c49 415 0 3.04886f
c50 410 0 3.10222f
c51 357 0 0.974632f
c52 345 0 3.04886f
c53 344 0 0.168601f
c54 340 0 3.04886f
c55 339 0 0.169285f
c56 236 0 0.971967f
c57 224 0 3.04886f
c58 223 0 0.168289f
c59 219 0 3.04886f
c60 218 0 0.169346f
c61 115 0 0.975149f
c62 103 0 3.04886f
c63 102 0 0.169399f
c64 98 0 3.04886f
c65 97 0 0.169627f
r66 570 572 6 
r67 556 612 0.00341463 
r68 554 556 3 
r69 554 558 0.0138182 
r70 550 552 0.102703 
r71 547 608 0.00439024 
r72 605 547 0.0512195 
r73 545 547 1.5 
r74 545 548 0.117757 
r75 542 603 0.00195122 
r76 600 542 0.0536585 
r77 540 542 1.5 
r78 540 543 0.118253 
r79 537 598 0.000487805 
r80 595 537 0.055122 
r81 535 537 1.5 
r82 535 538 0.11974 
r83 531 593 0.00292683 
r84 590 531 0.0526829 
r85 529 531 1.5 
r86 529 533 0.0678788 
r87 525 588 0.00536585 
r88 585 525 0.0502439 
r89 523 525 1.5 
r90 523 527 0.0693333 
r91 558 521 0.0697717 
r92 554 519 0.0138182 
r93 518 519 0.141735 
r94 517 550 0.02 
r95 516 521 0.0586021 
r96 516 517 0.36 
r97 545 515 0.0999055 
r98 514 552 0.02 
r99 514 515 1.035 
r100 540 513 0.100897 
r101 548 513 1.437 
r102 535 511 0.0989138 
r103 543 511 1.448 
r104 509 533 0.0200093 
r105 538 509 1.437 
r106 507 527 0.02 
r107 533 507 1.472 
r108 504 518 0.0586021 
r109 504 505 10.913 
r110 501 572 6 
r111 499 501 3.75099 
r112 581 498 0.0521951 
r113 496 498 3 
r114 495 499 0.0509474 
r115 495 496 0.00866667 
r116 494 505 0.0610788 
r117 494 496 0.142 
r118 570 492 15.6586 
r119 490 492 6 
r120 487 490 1.388 
r121 487 576 6 
r122 484 576 3.376 
r123 480 485 0.0933197 
r124 473 484 0.0447517 
r125 485 473 0.157176 
r126 480 449 0.0666667 
r127 442 474 1.85294 
r128 441 464 5.05882 
r129 440 464 5.05882 
r130 439 456 5.05882 
r131 438 456 5.05882 
r132 437 450 1.85294 
r133 432 442 3.88985 
r134 432 435 183.96 
r135 427 441 3.88985 
r136 427 430 183.96 
r137 422 440 3.88985 
r138 422 425 183.96 
r139 417 439 3.88985 
r140 417 420 183.96 
r141 412 438 3.88985 
r142 412 415 183.96 
r143 407 437 3.88985 
r144 407 410 183.96 
r145 350 357 5.05882 
r146 349 357 5.05882 
r147 344 350 3.88985 
r148 344 345 183.96 
r149 339 349 3.88985 
r150 339 340 183.96 
r151 464 298 0.00142683 
r152 603 298 3 
r153 357 287 0.00133393 
r154 605 287 3 
r155 262 357 0.0278113 
r156 608 262 3 
r157 474 251 0.00142683 
r158 612 251 3 
r159 229 236 5.05882 
r160 228 236 5.05882 
r161 223 229 3.88985 
r162 223 224 183.96 
r163 218 228 3.88985 
r164 218 219 183.96 
r165 456 177 0.00142683 
r166 593 177 3 
r167 236 166 0.00133393 
r168 595 166 3 
r169 141 236 0.0278113 
r170 598 141 3 
r171 464 130 0.0277856 
r172 600 130 3 
r173 108 115 5.05882 
r174 107 115 5.05882 
r175 102 108 3.88985 
r176 102 103 183.96 
r177 97 107 3.88985 
r178 97 98 183.96 
r179 450 56 0.00142683 
r180 581 56 3 
r181 115 45 0.00133393 
r182 585 45 3 
r183 20 115 0.0278113 
r184 588 20 3 
r185 456 9 0.0277856 
r186 590 9 3 
.ends

.subckt PM_PC3D11D%net_m32_VDDO_res 7 33
c0 33 0 1.6276f
c1 29 0 0.135335f
c2 17 0 0.168477f
c3 16 0 0.77018f
c4 15 0 1.57859f
c5 14 0 0.0736554f
c6 10 0 0.0713733f
c7 9 0 0.109291f
c8 7 0 0.362626f
r9 16 33 2.05452 
r10 16 17 8.75861 
r11 15 29 66.7742 
r12 14 29 60.5806 
r13 11 15 3.35663 
r14 11 17 11.5758 
r15 10 14 3.35347 
r16 9 10 6.625 
r17 6 9 4.5965 
r18 6 7 4.56364 
.ends

.subckt PM_PC3D11D%VDDO 21 828 896 907 918 929 940 951 962 977 1197 1210 1213
+ 1276 1285 1580 1584 1587 1591 1599 1606 1613 1622 1632 1645 1651 1657 1663 1669
+ 1714 1727 1730 1735
c0 1735 0 20.3129f
c1 1727 0 46.173f
c2 1712 0 6.8934f
c3 1708 0 2.98997f
c4 1677 0 9.5721f
c5 1669 0 1.74896f
c6 1663 0 2.15874f
c7 1657 0 1.72102f
c8 1651 0 1.95034f
c9 1645 0 2.02308f
c10 1642 0 3.35178f
c11 1629 0 0.505082f
c12 1625 0 29.0776f
c13 1624 0 1.97484f
c14 1622 0 62.8661f
c15 1605 0 50.9389f
c16 1596 0 0.696813f
c17 1594 0 1.2453f
c18 1591 0 3.00652f
c19 1584 0 2.4994f
c20 1577 0 0.0698777f
c21 1575 0 1.09255f
c22 1568 0 0.330853f
c23 1564 0 0.14958f
c24 1558 0 0.230124f
c25 1554 0 0.661063f
c26 1550 0 0.332801f
c27 1546 0 0.194107f
c28 1540 0 2.82954f
c29 1538 0 0.589656f
c30 1533 0 2.2149f
c31 1532 0 0.985815f
c32 1530 0 0.0714314f
c33 1529 0 0.111846f
c34 1521 0 0.0918332f
c35 1520 0 2.24346f
c36 1519 0 0.0461449f
c37 1518 0 0.673294f
c38 1515 0 0.246825f
c39 1509 0 0.0929873f
c40 1475 0 9.76182f
c41 1466 0 0.824144f
c42 1295 0 2.10895f
c43 1285 0 0.444232f
c44 1276 0 0.0819925f
c45 1241 0 0.120606f
c46 1235 0 0.119415f
c47 1233 0 2.40642f
c48 1231 0 0.00686422f
c49 1229 0 7.65986f
c50 1228 0 8.82654f
c51 1221 0 0.0962101f
c52 1213 0 0.349207f
c53 1210 0 0.764241f
c54 1204 0 0.0303797f
c55 1203 0 0.850499f
c56 1197 0 1.25788f
c57 1124 0 3.63084f
c58 1089 0 5.39118f
c59 1074 0 1.29937f
c60 1070 0 0.615713f
c61 1066 0 8.82846f
c62 1064 0 6.7868f
c63 1062 0 0.588747f
c64 1056 0 0.170971f
c65 1053 0 0.0533066f
c66 1051 0 0.0989764f
c67 977 0 7.73649f
c68 969 0 7.33964f
c69 966 0 11.7156f
c70 955 0 19.4869f
c71 944 0 19.4869f
c72 933 0 19.5155f
c73 922 0 19.4869f
c74 911 0 19.4869f
c75 900 0 11.8398f
c76 853 0 0.210878f
c77 816 0 0.0533066f
c78 805 0 0.12462f
c79 804 0 5.89132f
c80 801 0 0.104443f
c81 800 0 6.16073f
c82 21 0 0.593973f
c83 17 0 0.486838f
c84 16 0 6.73322f
c85 7 0 0.152029f
c86 6 0 6.75738f
r87 1730 1733 0.00394881 
r88 1724 1725 0.272418 
r89 1723 1724 0.0205664 
r90 1722 1723 0.122789 
r91 1721 1722 0.0124619 
r92 1720 1721 0.031634 
r93 1719 1720 0.0270153 
r94 1718 1719 0.0699782 
r95 1711 1712 0.0228571 
r96 1710 1727 0.00304139 
r97 1725 1710 0.00174292 
r98 1708 1710 0.461538 
r99 1672 1724 0.545455 
r100 1669 1672 1.185 
r101 1666 1723 0.545455 
r102 1663 1666 1.45 
r103 1660 1722 0.545455 
r104 1657 1660 1.4825 
r105 1654 1721 0.545455 
r106 1651 1654 1.63 
r107 1648 1719 0.5 
r108 1645 1648 1.455 
r109 1644 1718 0.00174292 
r110 1714 1644 0.00305011 
r111 1642 1644 0.461538 
r112 1636 1735 0.0039415 
r113 1733 1636 0.467422 
r114 1634 1636 0.5 
r115 1632 1634 0.181 
r116 1629 1632 0.17 
r117 1629 1725 1.5 
r118 1626 1627 0.5433 
r119 1625 1626 0.2247 
r120 1624 1627 0.099 
r121 1620 1622 0.0136564 
r122 1619 1620 0.0314855 
r123 1618 1619 0.0601494 
r124 1617 1618 0.0634357 
r125 1616 1617 0.0334274 
r126 1613 1616 0.01361 
r127 1602 1733 0.5 
r128 1599 1602 0.181 
r129 1596 1599 0.17 
r130 1596 1718 1.5 
r131 1594 1625 0.5293 
r132 1570 1573 3 
r133 1677 1570 0.0677429 
r134 1568 1570 3 
r135 1677 1560 0.1116 
r136 1705 1560 0.0028 
r137 1558 1560 6 
r138 1543 1711 6 
r139 1538 1540 6 
r140 1538 1543 0.752258 
r141 1533 1535 0.582857 
r142 1577 1531 0.0456991 
r143 1531 1532 2.06857 
r144 1529 1532 0.0446983 
r145 1529 1530 0.0971429 
r146 1527 1530 0.0446983 
r147 1527 1575 1.64571 
r148 1525 1540 2.907 
r149 1521 1711 0.0571429 
r150 1520 1521 0.0579048 
r151 1518 1525 0.0448005 
r152 1518 1519 0.685977 
r153 1514 1519 0.050458 
r154 1514 1515 0.12 
r155 1712 1509 10.0723 
r156 1475 1705 0.2648 
r157 1474 1705 0.2664 
r158 1473 1705 0.2664 
r159 1466 1515 7.46512 
r160 1465 1515 7.46512 
r161 1520 1297 2.2786 
r162 1297 1554 1.2 
r163 1288 1550 1 
r164 1282 1564 3 
r165 1279 1282 0.2885 
r166 1279 1546 2 
r167 1276 1279 2.755 
r168 1275 1276 1.9625 
r169 1274 1275 0.361 
r170 1558 1254 0.000149533 
r171 1594 1253 0.0555566 
r172 1253 1254 6 
r173 1252 1573 0.0444444 
r174 1568 1252 7.40741e-05 
r175 1594 1251 0.0279474 
r176 1251 1252 1.5 
r177 1546 1250 0.000233918 
r178 1626 1250 2 
r179 1554 1248 0.000114123 
r180 1625 1248 1.2 
r181 1550 1246 0.000100503 
r182 1627 1246 1 
r183 1564 1244 0.000299625 
r184 1626 1244 3 
r185 1577 1241 6 
r186 1575 1238 0.0557895 
r187 1238 1274 3 
r188 1535 1236 3.20857 
r189 1236 1275 6 
r190 1235 1295 0.0561431 
r191 1533 1235 6 
r192 1233 1509 0.0324243 
r193 1535 1233 6 
r194 1231 1285 0.0484211 
r195 1720 1231 2 
r196 1229 1288 0.219259 
r197 1228 1282 0.0845 
r198 1221 1274 0.8885 
r199 1220 1708 0.526 
r200 1220 1229 0.0447005 
r201 1219 1708 2.122 
r202 1219 1228 0.0446983 
r203 1210 1213 0.81913 
r204 1209 1213 0.309565 
r205 1203 1209 0.0446983 
r206 1203 1204 2.14261 
r207 1201 1204 0.0447246 
r208 1201 1295 4.39833 
r209 1196 1241 0.0422277 
r210 1196 1197 1.5875 
r211 1190 1642 2.122 
r212 1190 1221 0.0446983 
r213 1126 1127 0.490516 
r214 1125 1126 0.232864 
r215 1124 1125 0.279437 
r216 1115 1116 0.279231 
r217 1114 1115 0.2665 
r218 1105 1106 0.273962 
r219 1104 1105 0.261472 
r220 1091 1092 0.278131 
r221 1088 1591 0.0526456 
r222 1587 1088 0.0552365 
r223 1618 1088 0.00227273 
r224 1616 1086 3 
r225 1616 1084 0.666667 
r226 1617 1082 1.5 
r227 1619 1080 1.5 
r228 1620 1078 3 
r229 1620 1076 3 
r230 1620 1074 2 
r231 1072 1584 0.0620926 
r232 1580 1072 0.0688218 
r233 1611 1072 0.0025 
r234 1066 1104 3.77358e-05 
r235 1064 1114 3.84615e-05 
r236 1056 1124 0.117559 
r237 1055 1056 0.119812 
r238 1055 1062 0.181784 
r239 1054 1076 0.0101408 
r240 1053 1074 0.122066 
r241 1052 1089 0.0616822 
r242 1051 1052 0.08 
r243 1051 1070 0.274084 
r244 980 982 0.0829907 
r245 980 1127 0.1 
r246 982 977 0.159252 
r247 977 989 0.159252 
r248 977 980 0.0291589 
r249 969 977 0.159252 
r250 966 1080 1.5 
r251 962 966 0.793846 
r252 959 962 0.842637 
r253 959 1082 1.5 
r254 951 955 0.55145 
r255 948 951 0.585344 
r256 940 944 0.55145 
r257 937 940 0.585344 
r258 929 933 0.55145 
r259 926 929 0.585344 
r260 922 1116 1.5 
r261 918 922 0.55145 
r262 915 918 0.585344 
r263 915 1106 1.5 
r264 911 1115 1.5 
r265 907 911 0.55145 
r266 904 907 0.585344 
r267 904 1105 1.5 
r268 900 1114 1.5 
r269 896 900 0.793846 
r270 893 896 0.842637 
r271 893 1104 1.5 
r272 888 1096 0.2 
r273 977 888 0.0391734 
r274 871 1091 0.185047 
r275 1089 871 0.0930841 
r276 869 871 0.2 
r277 869 977 0.0397569 
r278 859 1084 0.231776 
r279 1096 859 0.232523 
r280 1616 859 1 
r281 948 857 1.5 
r282 857 1082 0.261509 
r283 1617 857 1.5 
r284 955 855 1.5 
r285 855 1080 0.266538 
r286 1619 855 1.5 
r287 1620 853 1 
r288 851 1096 0.231028 
r289 1086 851 0.278131 
r290 1616 851 0.6 
r291 937 849 1.5 
r292 849 857 0.273962 
r293 1617 849 1.5 
r294 944 847 1.5 
r295 847 855 0.279231 
r296 1619 847 1.5 
r297 845 1076 0.279437 
r298 1078 845 0.279437 
r299 1620 845 0.6 
r300 843 1086 0.139065 
r301 1092 843 0.683365 
r302 1616 843 2 
r303 926 841 1.5 
r304 841 849 0.273962 
r305 1106 841 0.273962 
r306 1617 841 1.5 
r307 933 839 1.5 
r308 839 847 0.279231 
r309 1116 839 0.279231 
r310 1619 839 1.5 
r311 837 1078 0.232864 
r312 1127 837 0.139343 
r313 1620 837 0.857143 
r314 834 1091 2 
r315 834 1089 0.666667 
r316 834 1070 0.666667 
r317 1606 834 0.0165962 
r318 834 1092 0.666667 
r319 832 1105 1.5 
r320 832 1066 1.5 
r321 832 1611 0.0805639 
r322 834 832 0.0404834 
r323 832 1106 1.5 
r324 830 1115 1.5 
r325 830 1064 1.5 
r326 1605 830 0.0330312 
r327 1611 830 0.0694058 
r328 830 1116 1.5 
r329 828 1125 3 
r330 828 1124 0.666667 
r331 828 1062 0.6 
r332 828 1624 0.0532592 
r333 828 1605 0.0241042 
r334 828 1126 0.666667 
r335 818 853 0.0239252 
r336 818 1053 0.04 
r337 816 853 0.135327 
r338 816 1054 0.04 
r339 811 989 0.73271 
r340 810 969 0.737944 
r341 809 977 0.73271 
r342 808 977 0.737944 
r343 805 809 0.0451326 
r344 805 977 2.504 
r345 804 811 0.0451326 
r346 804 977 2.44889 
r347 801 808 0.045921 
r348 801 977 2.687 
r349 800 810 0.045921 
r350 800 977 2.885 
r351 21 1466 1.36978 
r352 21 1465 1.36978 
r353 17 1705 1.51848 
r354 16 1475 0.0447329 
r355 16 1705 1.51162 
r356 15 1570 0.0737243 
r357 15 17 0.0447329 
r358 1474 7 0.0447329 
r359 7 1705 1.51848 
r360 6 1473 0.0447329 
r361 6 1705 1.51162 
.ends

.subckt PM_PC3D11D%CIN 14 19 26 58 101 145
c0 142 0 0.112303f
c1 140 0 7.07074f
c2 131 0 0.420752f
c3 123 0 15.6665f
c4 115 0 4.21592f
c5 110 0 0.176384f
c6 106 0 0.143541f
c7 104 0 5.7193f
c8 98 0 0.0723692f
c9 95 0 0.0379464f
c10 94 0 3.153f
c11 93 0 3.30766f
c12 91 0 0.0895149f
c13 85 0 1.4123f
c14 84 0 0.0898897f
c15 81 0 0.0375884f
c16 80 0 0.855486f
c17 79 0 0.0338006f
c18 75 0 1.37568f
c19 72 0 0.0345401f
c20 71 0 0.568273f
c21 67 0 7.74777f
c22 61 0 0.246801f
c23 60 0 0.18745f
c24 58 0 0.582869f
c25 41 0 1.65143f
c26 37 0 0.0360401f
c27 35 0 0.0187198f
c28 30 0 0.418875f
c29 26 0 1.19364f
c30 24 0 0.062646f
c31 23 0 0.3608f
c32 19 0 1.02343f
c33 14 0 0.655992f
r34 142 145 0.0207123 
r35 142 143 0.0568712 
r36 121 123 10.4343 
r37 119 121 4.96571 
r38 112 140 6 
r39 131 110 6 
r40 108 110 6 
r41 108 112 4.46429 
r42 123 106 6 
r43 104 106 6 
r44 104 108 6.27286 
r45 98 101 0.0207123 
r46 98 142 6 
r47 96 140 11.4788 
r48 94 96 0.04509 
r49 94 95 7.86286 
r50 126 93 4.69857 
r51 91 93 6 
r52 143 91 0.285714 
r53 89 95 0.0446983 
r54 89 91 0.0457143 
r55 82 84 0.107847 
r56 82 126 6 
r57 80 84 0.0448046 
r58 80 81 1.56857 
r59 79 81 0.0448488 
r60 78 79 0.103226 
r61 75 119 6 
r62 73 75 2.17429 
r63 71 78 0.0448488 
r64 71 72 1.35143 
r65 115 69 7.37143 
r66 67 69 6 
r67 66 72 0.0446983 
r68 66 67 14.7657 
r69 63 115 6 
r70 61 73 0.0446983 
r71 61 63 0.3 
r72 59 131 0.549677 
r73 59 60 0.00955498 
r74 57 60 0.0329896 
r75 57 58 0.5 
r76 54 58 0.9375 
r77 85 41 6 
r78 85 38 1.8075 
r79 38 121 6 
r80 35 41 2.64 
r81 31 37 0.029971 
r82 30 54 0.0450043 
r83 30 31 0.441081 
r84 25 37 0.0122637 
r85 25 26 0.9375 
r86 23 37 0.029971 
r87 23 24 0.441081 
r88 18 24 0.0450043 
r89 18 19 0.9375 
r90 13 35 0.0403741 
r91 13 14 0.536471 
.ends

.subckt PM_PC3D11D%PAD 21 50 91 120 161 190 247 271 295 319 349 355 380 488 507
+ 514
c0 522 0 26.8791f
c1 515 0 84.0351f
c2 514 0 64.3341f
c3 511 0 159.215f
c4 506 0 1.02561f
c5 499 0 9.97243f
c6 494 0 12.958f
c7 485 0 0.118304f
c8 482 0 202.801f
c9 468 0 15.3329f
c10 450 0 3.86504f
c11 381 0 128.347f
c12 380 0 1.04909f
c13 355 0 13.2018f
c14 349 0 13.172f
c15 319 0 13.1699f
c16 295 0 13.1832f
c17 271 0 13.4186f
c18 247 0 13.1699f
c19 212 0 7.52869f
c20 190 0 2.9853f
c21 173 0 6.78371f
c22 161 0 2.98495f
c23 144 0 6.78371f
c24 120 0 2.9853f
c25 103 0 6.78371f
c26 91 0 2.9853f
c27 74 0 6.78371f
c28 50 0 2.98608f
c29 33 0 6.78371f
c30 21 0 2.9853f
c31 4 0 6.78371f
r32 522 523 0.118407 
r33 521 522 0.118407 
r34 520 521 0.056883 
r35 519 520 0.061524 
r36 518 519 0.118407 
r37 517 518 0.0830354 
r38 516 517 0.0353716 
r39 514 515 0.0124825 
r40 512 514 0.000593149 
r41 511 512 0.0669731 
r42 506 507 0.00916 
r43 499 517 0.0545455 
r44 494 520 0.015 
r45 485 488 0.00916 
r46 485 506 2 
r47 481 494 0.0264274 
r48 481 482 0.147774 
r49 475 476 0.00752787 
r50 474 475 0.021023 
r51 472 474 0.000537705 
r52 472 511 0.00162999 
r53 470 472 0.000537705 
r54 468 470 0.0285508 
r55 459 506 0.1388 
r56 458 459 0.132996 
r57 457 458 0.0171733 
r58 456 457 0.0171733 
r59 455 456 0.0171733 
r60 454 455 0.0171733 
r61 453 454 0.0171733 
r62 450 499 0.202116 
r63 482 383 0.0288462 
r64 381 453 0.00818451 
r65 381 383 0.00646891 
r66 450 380 0.0147368 
r67 344 349 0.0072093 
r68 453 344 0.0566038 
r69 342 355 0.0072093 
r70 458 342 0.0566038 
r71 315 319 0.0072093 
r72 457 315 0.0566038 
r73 291 295 0.0072093 
r74 456 291 0.0566038 
r75 267 271 0.0072093 
r76 455 267 0.0566038 
r77 243 247 0.0072093 
r78 454 243 0.0566038 
r79 223 226 0.0022831 
r80 476 223 0.0375475 
r81 223 512 0.00547945 
r82 474 222 0.00210084 
r83 220 222 0.000537705 
r84 470 220 0.00210084 
r85 222 218 0.0105115 
r86 475 218 0.00712251 
r87 214 226 0.0187738 
r88 218 214 0.00376393 
r89 476 214 0.00712251 
r90 212 220 0.0142754 
r91 468 212 0.00356125 
r92 515 197 0.345778 
r93 196 522 0.0220132 
r94 196 197 0.319822 
r95 190 177 0.00249413 
r96 197 177 0.0425532 
r97 173 190 0.00249413 
r98 197 173 0.0425532 
r99 515 168 0.345778 
r100 167 523 0.0220132 
r101 167 168 0.319822 
r102 161 148 0.00249413 
r103 168 148 0.0425532 
r104 144 161 0.00249413 
r105 168 144 0.0425532 
r106 515 127 0.345778 
r107 126 519 0.0220132 
r108 126 127 0.319822 
r109 120 107 0.00249413 
r110 127 107 0.0425532 
r111 103 120 0.00249413 
r112 127 103 0.0425532 
r113 515 98 0.345778 
r114 97 521 0.0220132 
r115 97 98 0.319822 
r116 91 78 0.00249413 
r117 98 78 0.0425532 
r118 74 91 0.00249413 
r119 98 74 0.0425532 
r120 515 57 0.345778 
r121 56 516 0.0220132 
r122 56 57 0.319822 
r123 50 37 0.00249413 
r124 57 37 0.0425532 
r125 33 50 0.00249413 
r126 57 33 0.0425532 
r127 515 28 0.345778 
r128 27 518 0.0220132 
r129 27 28 0.319822 
r130 21 8 0.00249413 
r131 28 8 0.0425532 
r132 4 21 0.00249413 
r133 28 4 0.0425532 
.ends
