* File: pc3b04u.dist.sp.pex
* Created: Sun Jul  4 12:16:19 2010
* Program "Calibre xRC"
* Version "v2008.4_19.14"
* Nominal Temperature: 27C
* Circuit Temperature: 27C
* 
.subckt PM_PC3B04U%U28_padr 12 60 66 74 136 138 140 185
c0 256 0 16.2159f
c1 251 0 9.31832f
c2 242 0 15.9852f
c3 234 0 6.63629f
c4 230 0 5.6364f
c5 228 0 0.516512f
c6 226 0 0.0693806f
c7 225 0 0.207306f
c8 224 0 0.410871f
c9 214 0 1.22412f
c10 209 0 1.73033f
c11 200 0 1.83121f
c12 194 0 0.656732f
c13 190 0 2.51941f
c14 189 0 0.277604f
c15 186 0 0.703354f
c16 185 0 0.861137f
c17 162 0 0.093022f
c18 156 0 0.0843457f
c19 148 0 16.117f
c20 140 0 1.09106f
c21 138 0 0.567391f
c22 136 0 1.02291f
c23 106 0 0.394633f
c24 103 0 0.386024f
c25 102 0 0.370735f
c26 100 0 0.40312f
c27 96 0 0.421448f
c28 93 0 0.438674f
c29 90 0 0.226943f
c30 89 0 0.0193661f
c31 88 0 0.0834583f
c32 86 0 0.0580109f
c33 85 0 0.0700572f
c34 84 0 0.0831665f
c35 80 0 0.30153f
c36 78 0 0.0331349f
c37 77 0 0.0954138f
c38 74 0 1.27015f
c39 71 0 0.0712234f
c40 70 0 0.377719f
c41 66 0 2.39968f
c42 64 0 0.512434f
c43 60 0 2.3275f
c44 19 0 0.183911f
c45 18 0 0.0476323f
c46 17 0 0.0522162f
c47 16 0 0.0994236f
c48 12 0 1.07645f
r49 256 244 0.172857 
r50 242 244 6 
r51 238 240 3.984 
r52 234 256 2 
r53 232 234 10.3129 
r54 251 230 0.185079 
r55 228 230 1.2 
r56 227 228 0.482857 
r57 225 227 0.0446983 
r58 225 226 0.125714 
r59 224 226 0.0446983 
r60 219 220 6 
r61 216 242 6.58667 
r62 240 216 4.40667 
r63 214 216 6 
r64 214 219 0.8816 
r65 189 220 0.0840267 
r66 187 189 0.0448127 
r67 187 190 2.62845 
r68 186 251 0.18836 
r69 190 185 0.0773806 
r70 147 148 0.434667 
r71 128 140 168.333 
r72 128 162 3.92502 
r73 123 138 51.6667 
r74 122 123 1.66667 
r75 115 136 168.333 
r76 156 115 3.6393 
r77 209 110 6 
r78 107 212 0.8025 
r79 209 107 2.8475 
r80 107 148 6 
r81 106 162 0.77 
r82 212 106 6 
r83 103 207 1.2525 
r84 103 240 6 
r85 102 156 0.7825 
r86 207 102 6 
r87 200 100 6 
r88 97 203 0.8 
r89 200 97 2.88 
r90 97 147 6 
r91 203 96 6 
r92 93 198 0.482667 
r93 93 238 6 
r94 92 147 3.75467 
r95 198 92 6 
r96 90 110 0.05 
r97 86 96 0.642857 
r98 85 100 0.642857 
r99 84 90 0.0446983 
r100 83 89 0.0338756 
r101 83 84 0.1875 
r102 80 122 1.16667 
r103 79 89 0.0338756 
r104 79 80 0.245 
r105 77 89 0.00880368 
r106 77 78 0.25 
r107 73 78 0.0446983 
r108 73 74 1.2575 
r109 72 74 1.3775 
r110 70 72 0.0447588 
r111 70 71 0.544 
r112 88 66 2.375 
r113 64 88 0.12 
r114 63 86 0.0449572 
r115 63 64 0.8475 
r116 59 85 0.0449572 
r117 59 60 1.4975 
r118 58 71 0.0447588 
r119 58 60 1.3775 
r120 194 21 0.30381 
r121 19 21 3 
r122 18 19 0.109474 
r123 232 17 0.0446983 
r124 18 16 0.0456991 
r125 16 17 0.147143 
r126 13 224 0.407619 
r127 13 194 0.0446983 
r128 186 12 0.0147368 
.ends

.subckt PM_PC3B04U%VDDO 824 892 903 914 925 936 947 958 973 1165 1171 1175 1227
+ 1256 1261 1268 1294 1351 1626 1630 1633 1637 1645 1652 1659 1668 1678 1690 1696
+ 1702 1708 1714 1720 1726 1732 1742 1781 1798 1801 1806
c0 1806 0 21.1296f
c1 1798 0 53.0703f
c2 1777 0 3.00295f
c3 1746 0 9.66548f
c4 1739 0 0.500016f
c5 1732 0 1.39365f
c6 1726 0 2.72268f
c7 1720 0 1.37591f
c8 1714 0 1.72366f
c9 1708 0 2.07585f
c10 1702 0 0.814691f
c11 1696 0 1.85163f
c12 1690 0 2.41406f
c13 1687 0 5.46063f
c14 1675 0 0.505491f
c15 1671 0 30.8782f
c16 1670 0 1.942f
c17 1668 0 65.24f
c18 1651 0 52.5778f
c19 1641 0 0.698991f
c20 1640 0 1.39698f
c21 1637 0 3.00838f
c22 1630 0 2.51519f
c23 1624 0 0.132328f
c24 1615 0 0.331825f
c25 1611 0 0.211998f
c26 1605 0 0.23548f
c27 1601 0 0.619014f
c28 1597 0 0.344781f
c29 1593 0 0.300079f
c30 1589 0 0.62042f
c31 1584 0 1.62924f
c32 1579 0 2.4529f
c33 1547 0 9.76182f
c34 1373 0 3.49553f
c35 1358 0 11.7975f
c36 1351 0 0.0820252f
c37 1345 0 0.482554f
c38 1316 0 4.0422f
c39 1311 0 0.474075f
c40 1310 0 0.125713f
c41 1308 0 0.285411f
c42 1304 0 0.0321078f
c43 1302 0 8.46029f
c44 1301 0 3.51275f
c45 1296 0 0.910164f
c46 1293 0 0.0193183f
c47 1291 0 0.0208492f
c48 1290 0 5.85569f
c49 1288 0 0.192794f
c50 1278 0 0.0969917f
c51 1275 0 0.0596675f
c52 1274 0 3.19619f
c53 1273 0 1.09777f
c54 1268 0 1.44787f
c55 1265 0 0.451293f
c56 1261 0 1.38426f
c57 1247 0 0.336966f
c58 1244 0 0.671064f
c59 1238 0 0.0312283f
c60 1237 0 0.968758f
c61 1227 0 1.417f
c62 1120 0 3.54157f
c63 1085 0 5.3361f
c64 1070 0 1.29937f
c65 1066 0 0.64863f
c66 1062 0 8.851f
c67 1060 0 6.89048f
c68 1058 0 0.588747f
c69 1052 0 0.170971f
c70 1049 0 0.0533066f
c71 1047 0 0.10605f
c72 973 0 7.65864f
c73 965 0 7.25869f
c74 962 0 11.8819f
c75 951 0 19.7804f
c76 947 0 0.00989968f
c77 940 0 19.7809f
c78 936 0 0.00989968f
c79 929 0 19.8068f
c80 925 0 0.00989968f
c81 918 0 19.6137f
c82 914 0 0.0231487f
c83 907 0 19.7935f
c84 903 0 0.0106158f
c85 896 0 12.0899f
c86 892 0 0.00828265f
c87 849 0 0.210878f
c88 812 0 0.0533066f
c89 801 0 0.114944f
c90 800 0 7.03459f
c91 797 0 0.104443f
c92 796 0 6.31699f
c93 17 0 0.486838f
c94 16 0 6.74176f
c95 7 0 0.152029f
c96 6 0 6.76785f
r97 1801 1804 0.00394881 
r98 1795 1796 0.246667 
r99 1794 1795 0.0757734 
r100 1793 1794 0.0205664 
r101 1792 1793 0.028671 
r102 1791 1792 0.0440959 
r103 1790 1791 0.0124619 
r104 1789 1790 0.0360784 
r105 1788 1789 0.0354684 
r106 1787 1788 0.013159 
r107 1786 1787 0.0256209 
r108 1779 1798 0.00304139 
r109 1796 1779 0.00174292 
r110 1777 1779 0.461538 
r111 1739 1742 0.0002 
r112 1739 1795 0.666667 
r113 1735 1794 0.6 
r114 1732 1735 0.4475 
r115 1729 1793 0.6 
r116 1726 1729 1.6625 
r117 1723 1792 0.666667 
r118 1720 1723 0.365 
r119 1717 1791 0.545455 
r120 1714 1717 1.4825 
r121 1711 1790 0.545455 
r122 1708 1711 1.63 
r123 1705 1789 0.75 
r124 1702 1705 0.1575 
r125 1699 1788 0.75 
r126 1696 1699 1.1525 
r127 1693 1787 0.5 
r128 1690 1693 1.455 
r129 1781 1689 0.00305011 
r130 1687 1689 0.461538 
r131 1682 1806 0.0039415 
r132 1804 1682 0.467422 
r133 1680 1682 0.5 
r134 1678 1680 0.181 
r135 1675 1678 0.17 
r136 1675 1796 1.5 
r137 1672 1673 0.5433 
r138 1671 1672 0.2247 
r139 1670 1673 0.099 
r140 1666 1668 0.0136564 
r141 1665 1666 0.0314855 
r142 1664 1665 0.0601494 
r143 1663 1664 0.0634357 
r144 1662 1663 0.0334274 
r145 1659 1662 0.01361 
r146 1648 1804 0.5 
r147 1645 1648 0.181 
r148 1643 1786 0.0183007 
r149 1689 1643 0.00174292 
r150 1641 1643 1.5 
r151 1641 1645 0.17 
r152 1640 1671 0.5293 
r153 1622 1624 0.12 
r154 1617 1620 3 
r155 1746 1617 0.0677429 
r156 1615 1617 3 
r157 1746 1607 0.1116 
r158 1774 1607 0.0028 
r159 1605 1607 6 
r160 1586 1624 0.02 
r161 1583 1622 0.02 
r162 1583 1584 2.92286 
r163 1547 1774 0.2648 
r164 1546 1774 0.2664 
r165 1545 1774 0.2664 
r166 1368 1597 1 
r167 1365 1611 3 
r168 1362 1365 0.2885 
r169 1362 1593 2 
r170 1358 1601 1.2 
r171 1355 1358 1.03355 
r172 1350 1351 1.8985 
r173 1349 1350 0.7505 
r174 1605 1329 0.000149533 
r175 1640 1328 0.0555566 
r176 1328 1329 6 
r177 1327 1620 0.0444444 
r178 1615 1327 7.40741e-05 
r179 1640 1326 0.0279474 
r180 1326 1327 1.5 
r181 1593 1325 0.000233918 
r182 1672 1325 2 
r183 1601 1323 0.000114123 
r184 1671 1323 1.2 
r185 1597 1321 0.000100503 
r186 1673 1321 1 
r187 1611 1319 0.000299625 
r188 1672 1319 3 
r189 1589 1316 6 
r190 1589 1313 0.804286 
r191 1313 1355 6 
r192 1586 1311 0.787143 
r193 1311 1350 6 
r194 1310 1373 0.0561431 
r195 1584 1310 6 
r196 1579 1308 6 
r197 1579 1305 3.395 
r198 1305 1349 6 
r199 1304 1345 0.0484211 
r200 1786 1304 2 
r201 1302 1368 0.219259 
r202 1301 1365 0.0845 
r203 1300 1316 5.04429 
r204 1294 1296 0.605623 
r205 1292 1362 1.917 
r206 1292 1293 0.0149881 
r207 1290 1351 0.4775 
r208 1290 1291 0.013668 
r209 1286 1308 0.175 
r210 1285 1288 0.1525 
r211 1285 1286 0.02 
r212 1278 1349 0.563 
r213 1277 1777 0.526 
r214 1277 1302 0.0447005 
r215 1276 1777 2.122 
r216 1276 1301 0.0446983 
r217 1274 1300 0.0446983 
r218 1274 1275 3.31857 
r219 1294 1273 0.584127 
r220 1272 1275 0.0446983 
r221 1272 1273 1.02286 
r222 1267 1293 0.0313149 
r223 1267 1268 1.51 
r224 1266 1291 0.013668 
r225 1265 1293 0.0149881 
r226 1265 1266 0.2995 
r227 1260 1291 0.0337919 
r228 1260 1261 1.64138 
r229 1296 1256 1.36714 
r230 1244 1247 0.81913 
r231 1243 1247 0.309565 
r232 1237 1243 0.0446983 
r233 1237 1238 2.21913 
r234 1235 1238 0.0447246 
r235 1235 1373 4.4 
r236 1226 1288 0.02 
r237 1226 1227 1.3925 
r238 1222 1687 2.122 
r239 1222 1278 0.0446983 
r240 1247 1175 5.56667 
r241 1244 1171 5.56667 
r242 1165 1345 5.54444 
r243 1122 1123 0.490516 
r244 1121 1122 0.232864 
r245 1120 1121 0.279437 
r246 1111 1112 0.279231 
r247 1110 1111 0.2665 
r248 1101 1102 0.273962 
r249 1100 1101 0.261472 
r250 1087 1088 0.278131 
r251 1084 1637 0.0526456 
r252 1633 1084 0.0552365 
r253 1664 1084 0.00227273 
r254 1662 1082 3 
r255 1662 1080 0.666667 
r256 1663 1078 1.5 
r257 1665 1076 1.5 
r258 1666 1074 3 
r259 1666 1072 3 
r260 1666 1070 2 
r261 1068 1630 0.0620926 
r262 1626 1068 0.0688218 
r263 1657 1068 0.0025 
r264 1062 1100 3.77358e-05 
r265 1060 1110 3.84615e-05 
r266 1052 1120 0.117559 
r267 1051 1052 0.119812 
r268 1051 1058 0.181784 
r269 1050 1072 0.0101408 
r270 1049 1070 0.122066 
r271 1048 1085 0.0616822 
r272 1047 1048 0.08 
r273 1047 1066 0.274084 
r274 976 978 0.0829907 
r275 976 1123 0.1 
r276 978 973 0.159252 
r277 973 985 0.159252 
r278 973 976 0.0291589 
r279 965 973 0.159252 
r280 962 1076 1.5 
r281 958 962 0.793846 
r282 955 958 0.842637 
r283 955 1078 1.5 
r284 947 951 0.55145 
r285 944 947 0.585344 
r286 936 940 0.55145 
r287 933 936 0.585344 
r288 925 929 0.55145 
r289 922 925 0.585344 
r290 918 1112 1.5 
r291 914 918 0.55145 
r292 911 914 0.585344 
r293 911 1102 1.5 
r294 907 1111 1.5 
r295 903 907 0.55145 
r296 900 903 0.585344 
r297 900 1101 1.5 
r298 896 1110 1.5 
r299 892 896 0.793846 
r300 889 892 0.842637 
r301 889 1100 1.5 
r302 884 1092 0.2 
r303 973 884 0.0391734 
r304 867 1087 0.185047 
r305 1085 867 0.0930841 
r306 865 867 0.2 
r307 865 973 0.0397569 
r308 855 1080 0.231776 
r309 1092 855 0.232523 
r310 1662 855 1 
r311 944 853 1.5 
r312 853 1078 0.261509 
r313 1663 853 1.5 
r314 951 851 1.5 
r315 851 1076 0.266538 
r316 1665 851 1.5 
r317 1666 849 1 
r318 847 1092 0.231028 
r319 1082 847 0.278131 
r320 1662 847 0.6 
r321 933 845 1.5 
r322 845 853 0.273962 
r323 1663 845 1.5 
r324 940 843 1.5 
r325 843 851 0.279231 
r326 1665 843 1.5 
r327 841 1072 0.279437 
r328 1074 841 0.279437 
r329 1666 841 0.6 
r330 839 1082 0.139065 
r331 1088 839 0.683365 
r332 1662 839 2 
r333 922 837 1.5 
r334 837 845 0.273962 
r335 1102 837 0.273962 
r336 1663 837 1.5 
r337 929 835 1.5 
r338 835 843 0.279231 
r339 1112 835 0.279231 
r340 1665 835 1.5 
r341 833 1074 0.232864 
r342 1123 833 0.139343 
r343 1666 833 0.857143 
r344 830 1087 2 
r345 830 1085 0.666667 
r346 830 1066 0.666667 
r347 1652 830 0.0165962 
r348 830 1088 0.666667 
r349 828 1101 1.5 
r350 828 1062 1.5 
r351 828 1657 0.0805639 
r352 830 828 0.0404834 
r353 828 1102 1.5 
r354 826 1111 1.5 
r355 826 1060 1.5 
r356 1651 826 0.0330312 
r357 1657 826 0.0694058 
r358 826 1112 1.5 
r359 824 1121 3 
r360 824 1120 0.666667 
r361 824 1058 0.6 
r362 824 1670 0.0532592 
r363 824 1651 0.0241042 
r364 824 1122 0.666667 
r365 814 849 0.0239252 
r366 814 1049 0.04 
r367 812 849 0.135327 
r368 812 1050 0.04 
r369 807 985 0.73271 
r370 806 965 0.737944 
r371 805 973 0.73271 
r372 804 973 0.737944 
r373 801 805 0.0451326 
r374 801 973 2.504 
r375 800 807 0.0451326 
r376 800 973 2.44889 
r377 797 804 0.045921 
r378 797 973 2.687 
r379 796 806 0.045921 
r380 796 973 2.885 
r381 17 1774 1.51848 
r382 16 1547 0.0447329 
r383 16 1774 1.51162 
r384 15 1617 0.0737243 
r385 15 17 0.0447329 
r386 1546 7 0.0447329 
r387 7 1774 1.51848 
r388 6 1545 0.0447329 
r389 6 1774 1.51162 
.ends

.subckt PM_PC3B04U%net_m71_VSSO_res 9 38
c0 39 0 0.784003f
c1 33 0 0.910273f
c2 30 0 1.10702f
c3 24 0 0.0631335f
c4 23 0 0.319408f
c5 22 0 0.0527767f
c6 21 0 1.41585f
c7 20 0 0.948331f
r8 33 39 2.46349 
r9 33 38 1.8 
r10 29 30 0.987826 
r11 25 39 0.596923 
r12 23 25 0.0472932 
r13 23 24 0.351765 
r14 21 29 0.0468981 
r15 21 22 2.02471 
r16 20 24 0.0446983 
r17 19 22 0.0446983 
r18 19 20 1.4 
r19 30 9 5.56667 
.ends

.subckt PM_PC3B04U%net_m20_VSSO_res 21 105 109 113 117 121
c0 121 0 0.519409f
c1 117 0 0.519409f
c2 113 0 0.519409f
c3 109 0 0.717306f
c4 105 0 0.73297f
c5 102 0 0.45992f
c6 96 0 0.0621542f
c7 62 0 0.0631005f
c8 48 0 0.243065f
c9 47 0 0.242145f
c10 46 0 0.158208f
c11 45 0 0.170832f
c12 44 0 0.165042f
c13 28 0 0.596363f
c14 26 0 0.0473926f
c15 25 0 0.370969f
r16 97 102 0.0552941 
r17 96 97 0.02 
r18 95 96 0.129412 
r19 63 105 85 
r20 61 121 85 
r21 61 62 0.93595 
r22 56 117 85 
r23 55 56 1.55172 
r24 54 102 6.90667 
r25 53 55 5.17241 
r26 53 54 1.55172 
r27 52 113 85 
r28 51 53 11.1034 
r29 51 52 1.55172 
r30 50 109 85 
r31 49 62 2.23066 
r32 48 63 3.37824 
r33 48 49 10.8571 
r34 47 55 2.89655 
r35 46 62 2.23066 
r36 46 47 10.8571 
r37 45 50 3.37824 
r38 44 51 2.89655 
r39 44 45 10.8571 
r40 27 28 0.18 
r41 95 26 0.0446983 
r42 25 27 0.0446983 
r43 25 26 0.521176 
r44 28 21 5.56667 
.ends

.subckt PM_PC3B04U%VSS 660 827 863 885 909 914 927 929 934
c0 934 0 92.2059f
c1 927 0 55.3788f
c2 912 0 2.37329f
c3 909 0 0.00368951f
c4 906 0 1.24098f
c5 893 0 1.21678f
c6 881 0 1.88726f
c7 874 0 15.7863f
c8 860 0 1.45971f
c9 840 0 25.3075f
c10 838 0 0.0842555f
c11 837 0 0.0657505f
c12 836 0 7.75933f
c13 834 0 0.269279f
c14 831 0 0.0372194f
c15 827 0 4.20605f
c16 824 0 0.198007f
c17 822 0 0.849344f
c18 819 0 10.3813f
c19 812 0 8.71613f
c20 809 0 0.253612f
c21 808 0 0.100669f
c22 807 0 1.98808f
c23 701 0 2.24074f
c24 697 0 2.48218f
c25 692 0 1.88729f
c26 690 0 0.265305f
c27 688 0 0.276497f
c28 685 0 26.6169f
c29 680 0 0.814991f
c30 679 0 6.34069f
c31 673 0 2.0393f
c32 667 0 0.137389f
c33 666 0 2.49303f
c34 665 0 0.154374f
c35 664 0 2.27089f
c36 660 0 0.00279637f
c37 573 0 0.162892f
c38 571 0 0.72248f
c39 569 0 0.203897f
c40 544 0 2.94312f
c41 530 0 3.05957f
c42 528 0 0.031054f
c43 525 0 0.729043f
c44 524 0 7.74042f
c45 523 0 0.203811f
c46 508 0 5.70482f
c47 505 0 3.25515f
r48 929 932 0.000703354 
r49 925 927 0.00318245 
r50 924 925 0.00119641 
r51 923 924 0.0758524 
r52 922 923 0.0344168 
r53 921 922 0.167059 
r54 920 921 0.0871386 
r55 919 920 0.0414357 
r56 918 919 0.0141176 
r57 917 918 0.089651 
r58 914 917 0.00438684 
r59 912 925 0.461538 
r60 906 909 1.28857 
r61 906 923 1.5 
r62 900 921 0.0535714 
r63 898 919 1.5 
r64 898 900 1.612 
r65 893 896 0.045 
r66 893 920 0.666667 
r67 888 924 0.428571 
r68 885 888 0.189 
r69 883 934 0.000702051 
r70 932 883 0.0832563 
r71 881 883 0.131579 
r72 881 885 0.013 
r73 878 879 0.56934 
r74 877 878 1.12447 
r75 874 877 0.628223 
r76 874 922 0.3 
r77 866 917 0.428571 
r78 863 866 0.189 
r79 860 863 0.013 
r80 860 932 0.131579 
r81 839 854 0.02 
r82 839 840 0.9662 
r83 836 900 2.8715 
r84 836 837 0.0338756 
r85 840 833 1 
r86 833 834 0.0155975 
r87 831 898 1.283 
r88 830 838 0.0338756 
r89 829 837 0.0338756 
r90 827 904 2.59036 
r91 902 827 1.07807 
r92 826 838 0.00880368 
r93 826 827 0.958 
r94 825 837 0.00880368 
r95 825 827 0.986 
r96 834 824 0.0632911 
r97 824 822 0.0574488 
r98 819 838 0.0338756 
r99 818 831 0.0448201 
r100 815 912 1.518 
r101 814 912 0.426 
r102 812 904 1.08482 
r103 809 902 1.06072 
r104 808 827 3.1035 
r105 807 808 0.0448201 
r106 807 818 2.13041 
r107 819 703 0.733 
r108 827 703 1.93 
r109 701 842 3 
r110 902 697 1 
r111 842 692 0.24 
r112 878 692 1.5 
r113 703 690 3 
r114 877 690 3 
r115 688 904 3 
r116 879 688 3 
r117 685 871 1.1314 
r118 685 918 0.125 
r119 684 697 0.0075 
r120 854 684 0.056 
r121 871 684 0.24 
r122 680 830 0.5005 
r123 815 680 0.0446983 
r124 679 829 0.5005 
r125 814 679 0.0446983 
r126 678 701 0.830244 
r127 677 701 0.573659 
r128 672 673 1.37048 
r129 667 678 0.0448242 
r130 667 668 0.678222 
r131 666 673 0.0447675 
r132 666 668 0.650667 
r133 665 677 0.0446983 
r134 664 672 0.0447067 
r135 664 665 1.45854 
r136 896 660 0.31875 
r137 572 573 0.147619 
r138 568 569 0.14988 
r139 812 568 0.0380723 
r140 565 567 0.143333 
r141 809 564 0.0385542 
r142 562 564 0.14506 
r143 827 561 0.159 
r144 544 827 0.159 
r145 543 573 0.02 
r146 543 561 1.247 
r147 542 569 0.02 
r148 542 544 1.243 
r149 827 541 0.192 
r150 539 827 0.192 
r151 538 539 0.342 
r152 827 538 0.192 
r153 536 827 0.192 
r154 535 536 0.342 
r155 827 535 0.192 
r156 533 827 0.192 
r157 532 533 0.342 
r158 827 532 0.192 
r159 530 827 0.192 
r160 529 572 0.02 
r161 529 541 1.214 
r162 528 571 0.04 
r163 528 530 0.243 
r164 526 568 0.02 
r165 526 571 0.938734 
r166 833 525 0.102486 
r167 524 572 0.0380952 
r168 524 525 4.80524 
r169 523 822 0.555238 
r170 523 567 0.0380952 
r171 827 519 0.159 
r172 517 827 0.159 
r173 516 517 0.408 
r174 827 516 0.159 
r175 514 827 0.159 
r176 513 514 0.408 
r177 827 513 0.159 
r178 511 827 0.159 
r179 510 511 0.408 
r180 827 510 0.159 
r181 508 827 0.159 
r182 507 567 0.02 
r183 507 519 1.247 
r184 506 564 0.02 
r185 506 508 1.243 
r186 505 565 0.02 
r187 504 562 0.02 
r188 504 505 4.69271 
.ends

.subckt PM_PC3B04U%U28_U42_r1 93 98 140 145 152
c0 234 0 0.100654f
c1 232 0 0.442963f
c2 227 0 0.442911f
c3 222 0 0.346018f
c4 218 0 2.82383f
c5 213 0 0.149522f
c6 210 0 0.259978f
c7 209 0 0.481f
c8 207 0 0.243246f
c9 205 0 0.0831055f
c10 204 0 0.334018f
c11 201 0 6.43541f
c12 198 0 0.770282f
c13 194 0 1.49913f
c14 193 0 0.76349f
c15 186 0 3.2943f
c16 185 0 0.0777466f
c17 184 0 10.3327f
c18 182 0 0.472173f
c19 180 0 0.408756f
c20 177 0 0.140416f
c21 172 0 0.0742904f
c22 169 0 0.0630044f
c23 161 0 0.171215f
c24 153 0 0.534923f
c25 152 0 0.278026f
c26 148 0 0.607921f
c27 147 0 0.168259f
c28 145 0 3.04886f
c29 140 0 3.04886f
c30 108 0 0.971459f
c31 98 0 3.04886f
c32 97 0 0.167986f
c33 93 0 3.04886f
c34 92 0 0.16844f
r35 211 213 0.1472 
r36 209 213 0.02 
r37 208 209 0.747936 
r38 206 211 0.02 
r39 206 207 0.405333 
r40 204 207 0.0446983 
r41 204 205 0.314667 
r42 201 234 6 
r43 199 205 0.0446983 
r44 199 201 7.00667 
r45 197 232 0.000487805 
r46 229 197 0.055122 
r47 196 198 0.0668954 
r48 196 197 1.5 
r49 195 210 0.105278 
r50 194 198 0.0829785 
r51 194 195 1.43 
r52 193 210 0.0228035 
r53 192 227 0.00292683 
r54 224 192 0.0526829 
r55 191 193 0.0677143 
r56 191 192 1.5 
r57 188 222 3 
r58 186 210 0.105278 
r59 186 188 3.4 
r60 184 208 0.0482946 
r61 184 185 8.83231 
r62 180 182 6 
r63 179 185 0.0501405 
r64 179 180 0.594286 
r65 175 234 0.0490323 
r66 174 177 0.157419 
r67 174 175 0.02 
r68 173 182 0.577143 
r69 172 222 0.261 
r70 172 173 0.0465329 
r71 169 218 6 
r72 167 177 0.02 
r73 167 169 0.0490323 
r74 166 218 3.99613 
r75 165 166 0.026898 
r76 161 165 0.10143 
r77 161 152 0.106667 
r78 148 153 5.05882 
r79 147 153 5.05882 
r80 142 148 3.88985 
r81 142 145 183.96 
r82 137 147 3.88985 
r83 137 140 183.96 
r84 103 108 5.05882 
r85 102 108 5.05882 
r86 97 103 3.88985 
r87 97 98 183.96 
r88 92 102 3.88985 
r89 92 93 183.96 
r90 153 63 0.00142683 
r91 227 63 3 
r92 108 52 0.00133393 
r93 229 52 3 
r94 34 108 0.0278113 
r95 232 34 3 
r96 153 9 0.0277856 
r97 224 9 3 
.ends

.subckt PM_PC3B04U%VSSO 170 333 496 539 545 549 610 833 1024 1028 1035 1064
+ 1071 1083 1094 1096 1101 1104 1108 1112 1116 1120 1127 1133 1137 1141 1145 1152
+ 1158 1162 1166 1178 1221 1227 1231 1237
c0 1237 0 31.8953f
c1 1224 0 1.98471f
c2 1221 0 10.4819f
c3 1215 0 7.95245f
c4 1213 0 6.97302f
c5 1207 0 6.97097f
c6 1202 0 6.97244f
c7 1196 0 6.97339f
c8 1191 0 6.97548f
c9 1182 0 0.0963954f
c10 1178 0 7.53279e-19
c11 1173 0 8.95235f
c12 1166 0 0.342408f
c13 1162 0 1.36597f
c14 1158 0 1.40025f
c15 1145 0 1.35721f
c16 1141 0 1.35624f
c17 1137 0 1.34294f
c18 1133 0 1.38443f
c19 1120 0 1.20335f
c20 1116 0 0.840215f
c21 1112 0 1.37894f
c22 1108 0 2.02532f
c23 1104 0 1.55603f
c24 1101 0 1.69028f
c25 1099 0 2.28529f
c26 1094 0 8.25608e-19
c27 1092 0 8.96457f
c28 1081 0 7.90572f
c29 1077 0 1.27875f
c30 1067 0 1.65699f
c31 1064 0 58.4727f
c32 1031 0 1.3481f
c33 1028 0 10.6731f
c34 1021 0 0.161167f
c35 1014 0 0.0957715f
c36 1012 0 0.13943f
c37 1010 0 0.0396585f
c38 1009 0 0.334504f
c39 1008 0 2.36799f
c40 1005 0 0.112241f
c41 1004 0 0.0408562f
c42 1003 0 1.549f
c43 1001 0 0.0510217f
c44 1000 0 0.330224f
c45 961 0 35.8628f
c46 960 0 0.675001f
c47 955 0 5.52721f
c48 946 0 0.708327f
c49 942 0 3.26143f
c50 940 0 0.383003f
c51 939 0 0.713156f
c52 938 0 0.311353f
c53 937 0 3.26731f
c54 936 0 0.383249f
c55 934 0 0.49753f
c56 932 0 0.0157313f
c57 931 0 0.576542f
c58 927 0 0.0465497f
c59 926 0 0.185024f
c60 925 0 0.322367f
c61 895 0 0.122915f
c62 894 0 9.05999f
c63 864 0 0.284424f
c64 860 0 7.03694f
c65 856 0 0.146306f
c66 677 0 0.605971f
c67 660 0 0.906122f
c68 658 0 0.101596f
c69 656 0 0.0540025f
c70 654 0 1.41478f
c71 653 0 0.0319195f
c72 652 0 0.346471f
c73 639 0 0.948719f
c74 638 0 0.124377f
c75 635 0 0.539914f
c76 631 0 0.0481914f
c77 630 0 0.472169f
c78 610 0 0.114597f
c79 603 0 0.121666f
c80 509 0 6.68829f
c81 411 0 14.0342f
c82 361 0 14.0375f
c83 248 0 14.0375f
c84 198 0 14.036f
c85 35 0 14.0394f
c86 10 0 0.146306f
r87 1235 1237 0.00282778 
r88 1234 1235 0.355444 
r89 1231 1234 0.00283333 
r90 1226 1228 0.0106667 
r91 1226 1227 0.02 
r92 1224 1226 0.0143333 
r93 1184 1185 0.0140639 
r94 1177 1178 0.0126606 
r95 1215 1175 0.0113761 
r96 1173 1175 0.0638298 
r97 1170 1219 2 
r98 1166 1170 0.000380952 
r99 1094 1177 0.013211 
r100 1173 1094 0.000917431 
r101 1092 1094 0.000913242 
r102 1092 1184 0.0638298 
r103 1082 1083 0.02 
r104 1081 1184 0.0113242 
r105 1079 1081 0.0327869 
r106 1079 1082 0.0166784 
r107 1077 1079 0.029258 
r108 1074 1235 0.357143 
r109 1071 1074 0.21 
r110 1069 1221 0.00544385 
r111 1219 1069 0.0345455 
r112 1067 1069 1 
r113 1067 1071 0.445 
r114 1062 1064 0.00612761 
r115 1062 1215 0.0327869 
r116 1209 1060 0.00301483 
r117 1060 1213 0.00301741 
r118 1058 1060 0.0266667 
r119 1058 1062 0.0287785 
r120 1152 1057 0.130435 
r121 1057 1207 0.00301741 
r122 1204 1057 0.00301741 
r123 1055 1057 0.0266667 
r124 1055 1058 0.0242129 
r125 1198 1054 0.00301483 
r126 1054 1202 0.00301741 
r127 1052 1054 0.0266667 
r128 1052 1055 0.0242129 
r129 1051 1052 0.000615582 
r130 1127 1050 0.130435 
r131 1050 1196 0.00301741 
r132 1193 1050 0.00301741 
r133 1048 1050 0.0266667 
r134 1048 1051 0.0235973 
r135 1187 1047 0.00301483 
r136 1047 1191 0.00301741 
r137 1045 1047 0.0266667 
r138 1045 1048 0.0242129 
r139 1044 1077 0.02 
r140 1044 1045 0.0277012 
r141 1082 1041 0.429445 
r142 1038 1234 0.357143 
r143 1035 1038 0.21 
r144 1033 1230 0.144409 
r145 1228 1033 0.034 
r146 1031 1033 1 
r147 1031 1035 0.445 
r148 1020 1219 0.122995 
r149 1020 1021 0.00180503 
r150 1014 1182 0.0410689 
r151 1012 1014 3 
r152 1011 1012 0.148421 
r153 1009 1011 0.044878 
r154 1009 1010 0.407059 
r155 1008 1010 0.0446983 
r156 1007 1021 0.0865289 
r157 1007 1008 3.69176 
r158 1004 1005 0.1275 
r159 1003 1004 0.0448391 
r160 1002 1003 2.75862 
r161 1000 1002 0.044715 
r162 1000 1001 0.466667 
r163 1162 999 0.285 
r164 997 999 0.6 
r165 1158 996 0.32 
r166 994 996 0.6 
r167 994 997 0.0396791 
r168 1145 993 0.36 
r169 991 993 0.6 
r170 991 994 0.043262 
r171 1141 990 0.37 
r172 988 990 0.6 
r173 988 991 0.0347594 
r174 987 988 0.0225668 
r175 1137 986 0.3225 
r176 984 986 0.6 
r177 984 987 0.067861 
r178 1133 983 0.325 
r179 981 983 0.6 
r180 981 984 0.0253476 
r181 1120 980 0.3425 
r182 978 980 0.6 
r183 978 981 0.0224599 
r184 1116 977 0.04 
r185 975 977 0.75 
r186 975 978 0.0475936 
r187 1112 974 0.365 
r188 972 974 0.6 
r189 972 975 0.0226738 
r190 1108 971 0.194286 
r191 969 971 0.6 
r192 969 972 0.0233155 
r193 1104 968 0.3175 
r194 966 968 0.6 
r195 966 969 0.0203209 
r196 1101 965 0.96 
r197 963 965 0.666667 
r198 963 966 0.0213904 
r199 962 1224 0.02 
r200 962 963 0.0720856 
r201 961 1021 0.00180503 
r202 961 997 0.0395722 
r203 960 1001 0.0450432 
r204 1230 960 1.29371 
r205 953 955 6.4 
r206 953 1099 6 
r207 950 953 0.784211 
r208 948 1178 0.230275 
r209 946 1173 0.210275 
r210 943 1099 3.40429 
r211 941 1096 0.229041 
r212 941 942 0.0863581 
r213 939 1092 0.209132 
r214 939 940 0.0863581 
r215 948 937 0.0861375 
r216 937 938 0.132033 
r217 946 936 0.0861375 
r218 932 934 0.201086 
r219 932 931 0.0421961 
r220 1182 931 1.01412 
r221 926 943 0.0446983 
r222 926 927 0.311429 
r223 925 927 0.0449572 
r224 895 1094 0.128 
r225 894 938 0.0473573 
r226 894 1094 0.126 
r227 864 895 0.0473573 
r228 942 864 0.132033 
r229 860 1094 0.126 
r230 859 1101 1.1475 
r231 857 1094 0.128 
r232 856 857 0.0473573 
r233 856 940 0.250407 
r234 934 833 5.56667 
r235 955 662 6 
r236 987 660 0.75 
r237 1005 658 3 
r238 656 677 0.0494737 
r239 950 656 2 
r240 653 660 0.437895 
r241 653 654 0.0407126 
r242 859 652 0.0338756 
r243 638 662 0.0413535 
r244 638 639 1.14783 
r245 634 635 0.221176 
r246 630 634 0.0446983 
r247 630 631 0.668235 
r248 628 631 0.0446983 
r249 628 654 2.01647 
r250 609 652 0.00880368 
r251 609 610 0.1375 
r252 603 925 0.565 
r253 603 658 0.0265396 
r254 639 549 5.56667 
r255 635 545 5.56667 
r256 539 677 5.54444 
r257 512 1028 0.0419737 
r258 1024 512 0.0413851 
r259 1051 512 0.00128205 
r260 1041 509 2.21804 
r261 509 1228 0.6 
r262 1060 496 0.130435 
r263 1152 411 0.00313778 
r264 1207 411 0.0652174 
r265 496 401 0.0031351 
r266 1209 401 0.0652174 
r267 361 496 0.00314046 
r268 1213 361 0.0652174 
r269 1175 350 0.0141284 
r270 350 1177 0.0652174 
r271 1054 333 0.130435 
r272 1127 248 0.00313778 
r273 1196 248 0.0652174 
r274 333 238 0.0031351 
r275 1198 238 0.0652174 
r276 198 333 0.00314046 
r277 1202 198 0.0652174 
r278 188 1152 0.00313778 
r279 1204 188 0.0652174 
r280 1047 170 0.130435 
r281 85 1096 0.0126027 
r282 1094 85 0.0131507 
r283 1185 85 0.0652174 
r284 170 75 0.0031351 
r285 1187 75 0.0652174 
r286 35 170 0.00314046 
r287 1191 35 0.0652174 
r288 25 1127 0.00313778 
r289 1193 25 0.0652174 
r290 10 936 0.250407 
r291 10 860 0.0473573 
.ends

.subckt PM_PC3B04U%U28_U72_pgate 22 41 72 91 122 141 209 211 238 249 285 291
+ 296
c0 423 0 0.414046f
c1 420 0 0.306758f
c2 418 0 0.307529f
c3 417 0 0.307529f
c4 415 0 0.307529f
c5 414 0 0.28749f
c6 411 0 4.75712f
c7 409 0 0.219869f
c8 407 0 0.151607f
c9 405 0 16.0985f
c10 383 0 0.102306f
c11 379 0 5.91043f
c12 377 0 2.03853f
c13 373 0 3.88107f
c14 370 0 0.0347659f
c15 365 0 0.831484f
c16 355 0 3.00169f
c17 353 0 0.0612176f
c18 352 0 0.0386035f
c19 344 0 0.730528f
c20 331 0 4.60136f
c21 328 0 0.146501f
c22 327 0 0.0572348f
c23 322 0 0.094085f
c24 318 0 0.0242189f
c25 317 0 0.0476892f
c26 315 0 0.0789589f
c27 312 0 2.5107f
c28 310 0 0.0625515f
c29 309 0 0.373432f
c30 303 0 0.0591576f
c31 300 0 0.35593f
c32 296 0 1.50598f
c33 291 0 1.13408f
c34 289 0 0.0466683f
c35 288 0 0.415663f
c36 287 0 0.159312f
c37 285 0 1.51206f
c38 249 0 2.52503f
c39 243 0 1.79327f
c40 238 0 2.26197f
c41 236 0 0.0535543f
c42 235 0 0.400586f
c43 207 0 5.1026f
c44 198 0 4.80867f
c45 197 0 0.371977f
c46 191 0 0.405378f
c47 185 0 0.370539f
c48 135 0 0.309607f
c49 126 0 4.91819f
c50 124 0 0.105999f
c51 116 0 0.309607f
c52 107 0 4.91956f
c53 105 0 0.105999f
c54 85 0 0.309607f
c55 76 0 4.91956f
c56 74 0 0.105999f
c57 66 0 0.309607f
c58 57 0 4.92186f
c59 55 0 0.106492f
c60 35 0 0.293407f
c61 26 0 4.89123f
c62 24 0 0.105999f
c63 16 0 4.85906f
c64 7 0 4.97095f
c65 5 0 0.112859f
r66 420 421 0.32439 
r67 417 418 0.32839 
r68 414 415 0.32839 
r69 405 407 6 
r70 381 383 0.0341463 
r71 377 379 6 
r72 376 383 0.02 
r73 376 377 3.54667 
r74 373 407 6 
r75 371 381 0.02 
r76 371 373 5.05333 
r77 369 379 10.4077 
r78 368 423 0.219512 
r79 421 368 0.16439 
r80 366 368 6 
r81 365 370 0.0142174 
r82 365 366 0.21561 
r83 364 420 0.219512 
r84 418 364 0.16039 
r85 362 364 6 
r86 361 417 0.219512 
r87 415 361 0.16039 
r88 359 361 6 
r89 359 362 0.708293 
r90 357 414 0.219512 
r91 411 357 0.16039 
r92 355 357 6 
r93 355 359 0.708293 
r94 354 370 0.0142174 
r95 354 362 0.462439 
r96 353 369 0.0446983 
r97 352 370 0.0327344 
r98 352 353 0.149677 
r99 349 409 6 
r100 346 405 3.37032 
r101 402 346 11.4052 
r102 344 346 6 
r103 344 349 1.15143 
r104 341 399 6 
r105 338 341 0.708293 
r106 338 396 6 
r107 335 338 0.708293 
r108 335 393 6 
r109 331 335 0.708293 
r110 331 390 6 
r111 327 328 0.12 
r112 324 327 0.0451268 
r113 320 409 0.211429 
r114 319 322 0.0785714 
r115 319 320 0.02 
r116 311 322 0.02 
r117 311 312 3.31571 
r118 309 312 0.0461631 
r119 309 310 0.30026 
r120 304 318 0.0327921 
r121 303 318 0.0327921 
r122 302 310 0.0449793 
r123 302 303 0.0943284 
r124 301 317 0.0343218 
r125 300 318 0.00972501 
r126 300 301 0.514286 
r127 295 317 0.00843222 
r128 295 296 1.59625 
r129 290 315 0.0200702 
r130 290 291 1.20375 
r131 288 317 0.0343218 
r132 288 289 0.614603 
r133 287 315 0.0982456 
r134 286 289 0.0452323 
r135 286 287 0.395385 
r136 304 285 1.59625 
r137 249 246 2.3375 
r138 328 246 6 
r139 324 243 2.67 
r140 243 402 6 
r141 242 249 2.0425 
r142 237 238 2.0425 
r143 236 242 0.0446983 
r144 235 237 0.0446983 
r145 235 236 0.51 
r146 207 211 394.95 
r147 423 206 2.81176 
r148 206 207 1.5 
r149 198 209 394.95 
r150 197 421 2.74706 
r151 197 198 1.5 
r152 195 211 394.95 
r153 194 195 1.5 
r154 399 191 0.219512 
r155 191 194 2.78235 
r156 188 399 0.164878 
r157 186 209 394.95 
r158 185 188 2.74706 
r159 185 186 1.5 
r160 135 188 0.323902 
r161 396 135 0.219512 
r162 127 420 2.07647 
r163 126 141 394.95 
r164 126 127 4.2601 
r165 125 135 2.07647 
r166 124 141 394.95 
r167 124 125 4.2601 
r168 116 396 0.160878 
r169 108 418 2.07647 
r170 107 122 394.95 
r171 107 108 4.2601 
r172 106 116 2.07647 
r173 105 122 394.95 
r174 105 106 4.2601 
r175 85 116 0.327902 
r176 393 85 0.219512 
r177 77 417 2.07647 
r178 76 91 394.95 
r179 76 77 4.2601 
r180 75 85 2.07647 
r181 74 91 394.95 
r182 74 75 4.2601 
r183 66 393 0.160878 
r184 58 415 2.07647 
r185 57 72 394.95 
r186 57 58 4.2601 
r187 56 66 2.07647 
r188 55 72 394.95 
r189 55 56 4.2601 
r190 35 66 0.327902 
r191 390 35 0.219512 
r192 27 414 2.07647 
r193 26 41 394.95 
r194 26 27 4.2601 
r195 25 35 2.07647 
r196 24 41 394.95 
r197 24 25 4.2601 
r198 16 390 0.160878 
r199 8 411 2.07647 
r200 7 22 394.95 
r201 7 8 4.2601 
r202 6 16 2.07647 
r203 5 22 394.95 
r204 5 6 4.2601 
.ends

.subckt PM_PC3B04U%U15_pgate 31 38 43 50 57 68 73 113 118 141 187 193
c0 208 0 2.85576f
c1 197 0 1.22653f
c2 193 0 0.00447021f
c3 187 0 0.00533422f