*SPEF "IEEE 1481-1998"
*DESIGN "clk_divider_v2"
*DATE "Thu May 14 06:55:13 2026"
*VENDOR "Cadence Design Systems, Inc."
*PROGRAM "Innovus"
*VERSION "21.15-s110_1"
*DESIGN_FLOW "COUPLING C" "PIN_CAP NONE" "NAME_SCOPE LOCAL"
*DIVIDER /
*DELIMITER :
*BUS_DELIMITER []
*T_UNIT 1 NS
*C_UNIT 1 PF
*R_UNIT 1 OHM
*L_UNIT 1 HENRY

// MMMC spef file for corner 'default_rc_corner'

*NAME_MAP

*1 FE_OFN0_rst_n_sync
*2 clk_50m
*3 rst_n
*4 clk_line
*5 clk_line_pulse
*6 cnt[12]
*7 cnt[11]
*8 cnt[10]
*9 cnt[9]
*10 cnt[8]
*11 cnt[7]
*12 cnt[6]
*13 cnt[5]
*14 cnt[4]
*15 cnt[3]
*16 cnt[2]
*17 cnt[1]
*18 cnt[0]
*19 n_0
*20 n_1
*21 n_2
*22 n_3
*23 n_4
*24 n_5
*25 n_6
*26 n_7
*27 n_8
*28 n_9
*29 n_10
*30 n_11
*31 n_12
*32 n_13
*33 n_14
*34 n_15
*35 n_16
*36 n_17
*37 n_18
*38 n_19
*39 n_20
*40 n_21
*41 n_22
*42 n_23
*43 n_24
*44 n_25
*45 n_26
*46 n_27
*47 n_28
*48 n_29
*49 n_30
*50 n_31
*51 rst_n_sync
*52 rst_sync_meta
*53 FE_OFC0_rst_n_sync
*54 cnt_reg\[12\]
*55 g765__2398
*56 cnt_reg\[11\]
*57 g767__5107
*58 g768__6260
*59 g770__4319
*60 cnt_reg\[10\]
*61 cnt_reg\[9\]
*62 g771__8428
*63 g773__5526
*64 cnt_reg\[8\]
*65 g776__6783
*66 cnt_reg\[7\]
*67 g775__3680
*68 g779__1617
*69 g778__2802
*70 g781__1705
*71 cnt_reg\[6\]
*72 g782__5122
*73 cnt_reg\[5\]
*74 g784__8246
*75 clk_line_reg
*76 cnt_reg\[3\]
*77 cnt_reg\[4\]
*78 g789__7098
*79 g791__6131
*80 g787__1881
*81 clk_line_pulse_reg
*82 g792
*83 g793__5115
*84 g797__7482
*85 cnt_reg\[2\]
*86 g794__4733
*87 g798__6161
*88 g796__9315
*89 cnt_reg\[1\]
*90 g801__9945
*91 g800__2883
*92 rst_n_sync_reg
*93 g805__2346
*94 rst_sync_meta_reg
*95 cnt_reg\[0\]


*PORTS

*2 I *C 0 0.56
*3 I *C 0 59.92
*4 O *C 61.04 59.92
*5 O *C 61.04 0.56


*D_NET *1 0.0115491

*CONN
*I *64:CDN I *C 37.24 35.28 *L 0.0086 *D dfcrq1
*I *56:CDN I *C 38.92 8.4 *L 0.0086 *D dfcrq1
*I *66:CDN I *C 38.92 46.48 *L 0.0086 *D dfcrq1
*I *75:CDN I *C 49.56 46.48 *L 0.0086 *D dfcrq1
*I *61:CDN I *C 49 35.28 *L 0.0086 *D dfcrq1
*I *81:CDN I *C 49 12.88 *L 0.0086 *D dfcrq1
*I *60:CDN I *C 48.44 19.6 *L 0.0086 *D dfcrq1
*I *53:Z O *C 38.92 53.76 *L 0 *D buffd1

*CAP
1 *64:CDN 6.96042e-05
2 *56:CDN 6.96042e-05
3 *66:CDN 6.96042e-05
4 *75:CDN 6.96042e-05
5 *61:CDN 6.96042e-05
6 *81:CDN 6.96042e-05
7 *60:CDN 6.96042e-05
8 *53:Z 7.12958e-05
9 *1:8 0.000233614
10 *1:9 0.000233614
11 *1:10 0.000315107
12 *1:11 0.000315107
13 *1:12 0.000564422
14 *1:13 0.000239928
15 *1:14 0.000704178
16 *1:15 0.000667381
17 *1:16 0.000360374
18 *1:17 0.000367188
19 *1:18 0.000349641
20 *1:19 8.50427e-05
21 *1:20 0.000696066
22 *1:21 0.000696066
23 *1:22 0.000214209
24 *1:23 0.000334751
25 *1:24 0.000149942
26 *1:25 0.00078068
27 *1:26 0.00078068
28 *1:27 0.000696102
29 *1:28 0.000696102
30 *1:29 0.000287161
31 *1:30 0.000390691
32 *1:34 5.99433e-05
33 *1:35 0.000118243
34 *1:20 *8:3 7.8e-06
35 *1:21 *8:4 7.8e-06
36 *1:22 *8:10 0.00021527
37 *1:23 *8:9 0.00021527
38 *1:23 *8:10 9.226e-05
39 *1:24 *8:9 9.226e-05
40 *1:14 *8:10 1.186e-05
41 *1:15 *8:9 1.18599901e-05

*RES
1 *1:9 *56:CDN 6
2 *1:9 *1:8 0.960022
3 *1:21 *1:8 6
4 *1:21 *1:20 2.87997
5 *1:19 *1:20 6
6 *1:18 *81:CDN 6
7 *1:19 *1:18 0.319977
8 *1:35 *53:Z 0.389557
9 *1:18 *1:29 1.11996
10 *1:10 *1:35 6
11 *1:24 *1:29 0.160034
12 *1:11 *66:CDN 6
13 *1:11 *1:10 1.28
14 *1:23 *60:CDN 6
15 *1:24 *1:23 0.799988
16 *1:28 *1:11 6
17 *1:23 *1:22 1.11996
18 *1:28 *1:27 3.04001
19 *1:15 *1:22 0.160034
20 *1:16 *75:CDN 6
21 *1:33 *1:16 0.15802
22 *1:16 *1:27 6
23 *1:15 *1:14 2.56
24 *1:17 *1:16 1.59998
25 *1:14 *1:13 0.319977
26 *1:30 *1:17 0.160034
27 *1:12 *61:CDN 6
28 *1:13 *1:12 0.799988
29 *1:32 *1:12 0.15802
30 *1:12 *1:30 1.59998
31 *1:25 *1:12 6
32 *1:26 *1:25 3.35999
33 *1:34 *64:CDN 6
34 *1:34 *1:26 6
35 *1:31 *1:34 0.15802
*END

*D_NET *2 0.0464848

*CONN
*P *2 I *C 0 0.56 *L 0
*I *95:CP I *C 5.32 12.88 *L 0.00287 *D dfcrb1
*I *94:CP I *C 6.44 53.2 *L 0.00287 *D dfcrq1
*I *92:CP I *C 5.88 46.48 *L 0.00287 *D dfcrq1
*I *89:CP I *C 5.32 19.6 *L 0.00287 *D dfcrq1
*I *85:CP I *C 18.2 24.08 *L 0.00287 *D dfcrq1
*I *81:CP I *C 43.96 12.88 *L 0.00287 *D dfcrq1
*I *77:CP I *C 7 35.28 *L 0.00287 *D dfcrq1
*I *76:CP I *C 34.44 19.6 *L 0.00287 *D dfcrq1
*I *75:CP I *C 44.52 46.48 *L 0.00287 *D dfcrq1
*I *73:CP I *C 17.64 46.48 *L 0.00287 *D dfcrq1
*I *71:CP I *C 34.44 53.2 *L 0.00287 *D dfcrq1
*I *66:CP I *C 43.96 46.48 *L 0.00287 *D dfcrq1
*I *64:CP I *C 32.2 35.28 *L 0.00287 *D dfcrq1
*I *61:CP I *C 43.96 35.28 *L 0.00287 *D dfcrq1
*I *60:CP I *C 43.4 19.6 *L 0.00287 *D dfcrq1
*I *56:CP I *C 33.88 8.4 *L 0.00287 *D dfcrq1
*I *54:CP I *C 18.2 12.88 *L 0.00287 *D dfcrq1

*CAP
1 *2 0.000133601
2 *95:CP 6.95871e-05
3 *94:CP 6.95871e-05
4 *92:CP 6.95871e-05
5 *89:CP 6.95871e-05
6 *85:CP 6.95871e-05
7 *81:CP 3.78987e-05
8 *77:CP 3.78987e-05
9 *76:CP 6.95871e-05
10 *75:CP 3.78987e-05
11 *73:CP 6.95871e-05
12 *71:CP 6.95871e-05
13 *66:CP 8.48209e-05
14 *64:CP 6.95871e-05
15 *61:CP 6.95871e-05
16 *60:CP 6.95871e-05
17 *56:CP 6.95871e-05
18 *54:CP 6.95871e-05
19 *2:18 0.00256506
20 *2:19 0.000696933
21 *2:20 0.00205433
22 *2:21 0.000949325
23 *2:22 0.00184541
24 *2:23 0.000682389
25 *2:24 0.00307877
26 *2:25 0.00122481
27 *2:26 0.00213422
28 *2:27 0.00213422
29 *2:28 0.00132927
30 *2:29 0.00220625
31 *2:30 0.000924272
32 *2:40 0.00105071
33 *2:41 0.00105071
34 *2:42 0.000206744
35 *2:43 0.000126807
36 *2:44 0.000125904
37 *2:45 0.000290238
38 *2:46 0.000125904
39 *2:47 5.99267e-05
40 *2:48 0.000316725
41 *2:49 0.000111414
42 *2:50 7.46297e-05
43 *2:51 0.000861851
44 *2:52 0.00292107
45 *2:53 8.48209e-05
46 *2:54 0.00347856
47 *2:55 0.00230455
48 *2:56 0.000856861
49 *2:57 5.99267e-05
50 *2:58 5.99267e-05
51 *2:59 0.00149525
52 *2:60 0.000102762
53 *2:61 9.15089e-05
54 *2:62 0.00149525
55 *2:63 0.000102762
56 *2:64 5.99267e-05
57 *2:65 5.99267e-05
58 *2:66 9.15089e-05
59 *2:67 0.000578513
60 *2:68 0.00146515
61 *2:69 0.000120013
62 *2:70 0.000980695
63 *2:71 0.000980695
64 *2:72 0.000120013
65 *2:73 0.000980695
66 *2:74 5.99267e-05
67 *2:75 8.84303e-05
68 *2:76 5.99267e-05
69 *2:77 8.84303e-05
70 *2:78 8.48209e-05
71 *2:79 7.46297e-05
72 *2:80 7.46297e-05

*RES
1 *2:76 *71:CP 5.99999
2 *2:39 *2:76 0.158013
3 *2:77 *2:76 5.99999
4 *2:72 *2:77 0.160034
5 *2:73 *2:72 2.50001
6 *66:CP *75:CP 0.194736
7 *2:71 *2:73 0.610937
8 *2:80 *66:CP 5.99999
9 *2:57 *73:CP 5.99999
10 *2:32 *2:57 0.158013
11 *2:28 *2:71 2.50001
12 *2:74 *76:CP 5.99999
13 *2:38 *2:74 0.158013
14 *2:79 *61:CP 5.99999
15 *2:25 *2:80 0.160034
16 *2 *2:42 0.617114
17 *2:64 *64:CP 5.99999
18 *2:35 *2:64 0.158013
19 *2:29 *2:57 5.99999
20 *2:29 *2:28 4.63998
21 *2:63 *85:CP 5.99999
22 *2:65 *56:CP 5.99999
23 *2:36 *2:65 0.158013
24 *2:75 *2:74 5.99999
25 *2:24 *2:79 0.160034
26 *2:24 *2:25 3.20001
27 *2:42 *2:43 0.319956
28 *2:26 *2:64 5.99999
29 *2:50 *92:CP 5.99999
30 *2:30 *2:29 3.20001
31 *2:56 *94:CP 5.99999
32 *2:60 *2:63 0.160034
33 *2:66 *2:65 5.99999
34 *2:37 *2:66 0.158013
35 *2:69 *2:75 0.160034
36 *2:78 *81:CP 0.194736
37 *2:18 *60:CP 5.99999
38 *2:18 *2:24 4.47995
39 *2:44 *2:43 2.50001
40 *2:53 *77:CP 0.194736
41 *2:27 *2:26 7.35999966
42 *2:50 *2:55 0.160034
43 *2:55 *2:30 5.99999
44 *2:55 *2:56 1.91996
45 *2:61 *2:60 5.99999
46 *2:34 *2:61 0.158013
47 *2:67 *2:66 2.50001
48 *2:70 *2:69 2.50001
49 *2:19 *2:78 5.99999
50 *2:19 *2:18 1.91996
51 *2:40 *2:44 0.10186
52 *2:49 *89:CP 5.99999
53 *2:54 *2:53 5.99999
54 *2:54 *2:27 5.99999
55 *2:54 *2:55 3.20001
56 *2:62 *2:61 2.50001
57 *2:67 *2:68 0.407217
58 *2:68 *2:70 0.610937
59 *2:23 *2:19 5.99999
60 *2:40 *2:41 1.01815
61 *2:49 *2:52 0.319956
62 *2:52 *2:54 4.47995
63 *2:58 *54:CP 5.99999
64 *2:33 *2:58 0.158013
65 *2:59 *2:62 0.96728
66 *2:22 *2:68 2.50001
67 *2:22 *2:23 2.72002
68 *2:41 *2:46 0.10186
69 *2:51 *2:52 1.91996
70 *2:20 *2:58 5.99999
71 *2:20 *2:59 2.50001
72 *2:20 *2:22 4.47995
73 *2:45 *2:46 2.50001
74 *2:21 *2:51 5.99999
75 *2:21 *2:20 3.36004
76 *2:45 *2:48 0.799946
77 *2:48 *2:21 0.319956
78 *2:47 *95:CP 5.99999
79 *2:47 *2:48 5.99999
80 *2:31 *2:47 0.158013
*END

*D_NET *3 0.00332368

*CONN
*P *3 I *C 0 59.92 *L 0
*I *94:CDN I *C 11.48 53.2 *L 0.0086 *D dfcrq1
*I *92:CDN I *C 10.92 46.48 *L 0.0086 *D dfcrq1

*CAP
1 *3 0.000687804
2 *94:CDN 6.96029e-05
3 *92:CDN 6.96029e-05
4 *3:3 0.000210923
5 *3:4 0.000204099
6 *3:5 0.000247624
7 *3:6 0.000670641
8 *3:7 0.000445612
9 *3:8 0.00071777

*RES
1 *3:4 *92:CDN 6
2 *3:4 *3:3 0.960022
3 *3:3 *3:5 0.160034
4 *3:6 *94:CDN 6
5 *3:5 *3:6 0.960022
6 *3:6 *3:7 1.92004
7 *3:8 *3:7 6
8 *3 *3:8 3.17715
*END

*D_NET *4 0.00367946

*CONN
*P *4 O *C 61.04 59.92 *L 0.05
*I *78:S I *C 51.8 41.44 *L 0.00819 *D mx02d1
*I *75:Q O *C 55.16 48.16 *L 0 *D dfcrq1

*CAP
1 *4 0.000306489
2 *78:S 0.000261139
3 *75:Q 6.96018e-05
4 *4:3 0.00119501
5 *4:4 0.000314877
6 *4:5 0.000299997
7 *4:6 0.000895906
8 *4:7 0.000336448

*RES
1 *4:7 *4 1.41568
2 *4:6 *4:7 6
3 *4:3 *4:6 4.00003
4 *4:3 *75:Q 6
5 *4:4 *4:3 1.28
6 *4:5 *4:4 6
7 *78:S *4:5 1.36349
*END

*D_NET *5 0.00229845

*CONN
*P *5 O *C 61.04 0.56 *L 0.05
*I *81:Q O *C 54.6 14.56 *L 0 *D dfcrq1

*CAP
1 *5 0.00034112
2 *81:Q 6.96009e-05
3 *5:2 0.00075832
4 *5:3 0.000371089
5 *5:4 0.00075832

*RES
1 *5:3 *5 1.57571
2 *5:4 *81:Q 6
3 *5:2 *5:3 6
4 *5:2 *5:4 3.35999
*END

*D_NET *6 0.00289539

*CONN
*I *93:A2 I *C 27.16 24.64 *L 0.005 *D nd12d1
*I *57:A2 I *C 33.32 13.44 *L 0.00391 *D nd02d1
*I *55:C2 I *C 31.64 14 *L 0.0046 *D oan211d1
*I *54:Q O *C 28.84 14.56 *L 0 *D dfcrq1

*CAP
1 *93:A2 6.96027e-05
2 *57:A2 6.96027e-05
3 *55:C2 6.96027e-05
4 *54:Q 6.96027e-05
5 *6:4 0.000688692
6 *6:5 0.00076908
7 *6:6 0.000286051
8 *6:7 0.000279444
9 *6:10 7.0342e-05
10 *6:11 0.000150741
11 *6:12 5.99445e-05
12 *6:13 0.000133631
13 *6:14 5.99445e-05
14 *6:15 0.000119126

*RES
1 *6:4 *93:A2 6
2 *6:5 *6:4 2.72003
3 *6:5 *6:11 0.480011
4 *6:10 *6:11 0.160034
5 *6:10 *54:Q 6
6 *6:14 *57:A2 6
7 *6:9 *6:14 0.15802
8 *6:7 *6:10 6
9 *6:15 *6:14 6
10 *6:7 *6:6 0.799988
11 *6:13 *6:15 0.480011
12 *6:13 *6:6 0.160034
13 *6:12 *55:C2 6
14 *6:12 *6:13 6
15 *6:8 *6:12 0.15802
*END

*D_NET *7 0.00350305

*CONN
*I *86:A1 I *C 37.8 19.04 *L 0.00429 *D nr03d1
*I *59:A2 I *C 41.72 13.44 *L 0.00391 *D nd02d1
*I *58:B2 I *C 36.68 12.88 *L 0.00523 *D ora21d1
*I *56:Q O *C 44.52 6.72 *L 0 *D dfcrq1

*CAP
1 *86:A1 5.99689e-05
2 *59:A2 6.95988e-05
3 *58:B2 6.95988e-05
4 *56:Q 6.95988e-05
5 *7:4 0.000284687
6 *7:5 0.00041109
7 *7:6 0.000142169
8 *7:7 9.56191e-05
9 *7:8 7.41425e-05
10 *7:9 7.41425e-05
11 *7:10 0.00060277
12 *7:11 0.000427122
13 *7:12 8.25952e-05
14 *7:13 6.67568e-05
15 *7:14 0.000191422
16 *7:15 0.000387471
17 *7:16 0.000394286

*RES
1 *7:15 *56:Q 6
2 *7:15 *7:16 1.59998
3 *7:9 *59:A2 6
4 *7:13 *7:16 0.160034
5 *7:7 *86:A1 0.389557
6 *7:9 *7:8 0.160034
7 *7:14 *7:13 6
8 *7:12 *7:7 0.194824
9 *7:10 *7:8 6
10 *7:10 *7:14 0.799988
11 *7:4 *7:12 6
12 *7:11 *7:10 1.44003
13 *7:5 *7:4 1.11996
14 *7:5 *7:11 6
15 *7:6 *7:5 0.480011
16 *58:B2 *7:6 6
*END

*D_NET *8 0.00367419

*CONN
*I *86:A2 I *C 38.36 18.48 *L 0.00472 *D nr03d1
*I *62:B I *C 49 24.08 *L 0.00625 *D ah01d1
*I *60:Q O *C 54.04 17.92 *L 0 *D dfcrq1

*CAP
1 *86:A2 0.000325539
2 *62:B 6.96066e-05
3 *60:Q 6.96066e-05
4 *8:3 0.00074041
5 *8:4 0.000414476
6 *8:7 0.000364381
7 *8:8 5.99355e-05
8 *8:9 0.000287103
9 *8:10 0.000287103
10 *8:11 5.99355e-05
11 *8:12 0.000341706
12 *8:3 *1:20 7.8e-06
13 *8:4 *1:21 7.8e-06
14 *8:10 *1:22 0.00021527
15 *8:9 *1:23 0.00021527
16 *8:10 *1:23 9.226e-05
17 *8:9 *1:24 9.226e-05
18 *8:10 *1:14 1.186e-05
19 *8:9 *1:15 1.18599901e-05

*RES
1 *8:10 *62:B 6
2 *8:6 *8:11 0.15802
3 *8:11 *60:Q 6
4 *8:9 *8:10 1.76001
5 *8:12 *8:11 6
6 *8:3 *8:9 6
7 *8:3 *8:12 1.44003
8 *86:A2 *8:7 1.55823
9 *8:4 *8:3 1.76001
10 *8:8 *8:7 6
11 *8:8 *8:4 6
12 *8:5 *8:8 0.15802
*END

*D_NET *9 0.00384074

*CONN
*I *88:A3 I *C 38.36 30.8 *L 0.00454 *D nd04d1
*I *67:A2 I *C 50.68 30.8 *L 0.00381 *D an02d1
*I *63:C2 I *C 48.44 29.68 *L 0.00488 *D aoim211d1
*I *61:Q O *C 54.6 36.96 *L 0 *D dfcrq1

*CAP
1 *88:A3 6.9595e-05
2 *67:A2 6.9595e-05
3 *63:C2 6.9595e-05
4 *61:Q 6.9595e-05
5 *9:4 0.0008827
6 *9:5 0.000776078
7 *9:6 0.000211937
8 *9:7 0.000211937
9 *9:8 0.000379062
10 *9:9 7.10093e-05
11 *9:10 7.10093e-05
12 *9:11 6.46115e-05
13 *9:12 6.46115e-05
14 *9:13 6.6753e-05
15 *9:14 0.000272427
16 *9:15 0.000248519
17 *9:16 0.00024169

*RES
1 *9:16 *61:Q 6
2 *9:15 *9:16 0.960022
3 *9:11 *67:A2 6
4 *9:13 *9:15 0.160034
5 *9:7 *63:C2 6
6 *9:11 *9:12 0.160034
7 *9:14 *9:13 6
8 *9:7 *9:6 0.480011
9 *9:8 *9:12 6
10 *9:8 *9:14 1.11996
11 *9:4 *9:6 6
12 *9:4 *9:8 0.640045
13 *9:5 *9:4 2.87997
14 *9:9 *9:5 6
15 *9:10 *9:9 0.160034
16 *88:A3 *9:10 6
*END

*D_NET *10 0.00263196

*CONN
*I *88:A4 I *C 40.04 30.24 *L 0.00406 *D nd04d1
*I *69:A2 I *C 41.72 30.8 *L 0.00381 *D an02d1
*I *65:C2 I *C 36.12 29.68 *L 0.00488 *D aoim211d1
*I *64:Q O *C 42.84 36.96 *L 0 *D dfcrq1

*CAP
1 *88:A4 6.9601e-05
2 *69:A2 6.9601e-05
3 *65:C2 6.9601e-05
4 *64:Q 6.9601e-05
5 *10:4 0.000118312
6 *10:5 0.000419608
7 *10:6 0.000317074
8 *10:8 5.99389e-05
9 *10:9 6.69959e-05
10 *10:10 6.69959e-05
11 *10:11 8.71137e-05
12 *10:12 0.00046018
13 *10:13 0.000432444
14 *10:14 0.000184248
15 *10:15 0.000140649

*RES
1 *10:15 *64:Q 6
2 *10:14 *10:15 0.319977
3 *10:13 *10:14 0.319977
4 *10:12 *69:A2 6
5 *10:12 *10:13 1.44003
6 *10:10 *88:A4 6
7 *10:11 *10:12 0.319977
8 *10:9 *10:10 0.160034
9 *10:4 *10:11 6
10 *10:5 *10:9 6
11 *10:5 *10:4 0.480011
12 *10:6 *10:5 1.11996
13 *10:8 *65:C2 6
14 *10:8 *10:6 6
15 *10:7 *10:8 0.15802
*END

*D_NET *11 0.00339867

*CONN
*I *88:A1 I *C 39.48 31.36 *L 0.00445 *D nd04d1
*I *70:A2 I *C 36.68 42 *L 0.00381 *D an02d1
*I *68:C2 I *C 38.92 40.88 *L 0.00488 *D aoim211d1
*I *66:Q O *C 33.32 48.16 *L 0 *D dfcrq1

*CAP
1 *88:A1 6.9601e-05
2 *70:A2 6.9601e-05
3 *68:C2 6.9601e-05
4 *66:Q 6.9601e-05
5 *11:4 8.36801e-05
6 *11:5 8.36801e-05
7 *11:6 0.000365114
8 *11:7 0.000104475
9 *11:8 0.000260066
10 *11:9 0.00053675
11 *11:10 0.000173437
12 *11:11 0.000318454
13 *11:12 0.000311632
14 *11:13 0.000416443
15 *11:14 0.000233259
16 *11:15 0.000233259

*RES
1 *11:12 *88:A1 6
2 *11:12 *11:11 1.11996
3 *11:13 *11:11 0.160034
4 *11:9 *68:C2 6
5 *11:13 *11:9 1.59998
6 *11:7 *70:A2 6
7 *11:9 *11:8 0.640045
8 *11:7 *11:6 0.319977
9 *11:6 *11:8 0.640045
10 *11:6 *11:10 0.640045
11 *11:15 *11:10 6
12 *11:14 *11:15 1.11996
13 *11:4 *66:Q 6
14 *11:5 *11:14 6
15 *11:5 *11:4 0.160034
*END

*D_NET *12 0.00513908

*CONN
*I *91:A1 I *C 26.04 29.68 *L 0.00489 *D nr04d1
*I *72:B I *C 28.28 42 *L 0.00625 *D ah01d1
*I *71:Q O *C 23.8 51.52 *L 0 *D dfcrq1

*CAP
1 *91:A1 6.96022e-05
2 *72:B 6.96022e-05
3 *71:Q 6.96022e-05
4 *12:3 0.00044238
5 *12:4 0.00044238
6 *12:5 9.02783e-05
7 *12:6 0.000101862
8 *12:7 0.000105669
9 *12:8 0.000277086
10 *12:9 5.42521e-05
11 *12:10 0.000321435
12 *12:11 0.000321435
13 *12:12 0.000315657
14 *12:13 0.000315657
15 *12:14 0.000148176
16 *12:15 0.000155
17 *12:17 5.99425e-05
18 *12:18 0.000125373
19 *12:19 0.00029091
20 *12:7 *13:3 9.226e-05
21 *12:8 *13:4 9.226e-05
22 *12:8 *13:3 3.075e-05
23 *12:9 *13:4 3.075e-05
24 *12:10 *13:3 3.557e-05
25 *12:11 *13:4 3.557e-05
26 *12:3 *13:5 0.00049206
27 *12:4 *13:6 0.00049206
28 *12:5 *13:5 3.075e-05
29 *12:6 *13:6 3.07500451e-05

*RES
1 *12:6 *91:A1 6
2 *12:6 *12:5 0.480011
3 *12:4 *12:5 0.0800171
4 *12:4 *12:3 2.56
5 *12:18 *12:3 0.0800171
6 *12:9 *72:B 6
7 *12:18 *12:19 0.640045
8 *12:9 *12:8 0.160034
9 *12:19 *12:8 0.799988
10 *12:8 *12:7 0.480011
11 *12:11 *12:7 0.160034
12 *12:11 *12:10 1.59998
13 *12:10 *12:15 0.160034
14 *12:15 *12:14 0.480011
15 *12:12 *12:14 6
16 *12:13 *12:12 1.28
17 *12:17 *12:13 6
18 *12:17 *71:Q 6
19 *12:16 *12:17 0.15802
*END

*D_NET *13 0.00450681

*CONN
*I *91:A2 I *C 26.6 30.8 *L 0.00473 *D nr04d1
*I *74:B I *C 21.56 42 *L 0.00625 *D ah01d1
*I *73:Q O *C 28.28 48.16 *L 0 *D dfcrq1

*CAP
1 *91:A2 6.96029e-05
2 *74:B 6.96029e-05
3 *73:Q 6.96029e-05
4 *13:3 0.00022429
5 *13:4 0.000356702
6 *13:5 0.000566496211
7 *13:6 0.000449333
8 *13:8 5.99387e-05
9 *13:9 0.000506549
10 *13:10 0.00026535
11 *13:11 0.000506549
12 *13:3 *12:7 9.226e-05
13 *13:4 *12:8 9.226e-05
14 *13:3 *12:8 3.075e-05
15 *13:4 *12:9 3.075e-05
16 *13:3 *12:10 3.557e-05
17 *13:4 *12:11 3.557e-05
18 *13:5 *12:3 0.00049206
19 *13:6 *12:4 0.00049206
20 *13:5 *12:5 3.075e-05
21 *13:6 *12:6 3.07500451e-05

*RES
1 *13:6 *91:A2 6
2 *13:6 *13:5 2.72003
3 *13:5 *13:10 0.640045
4 *13:3 *73:Q 6
5 *13:10 *13:4 0.480011
6 *13:4 *13:3 1.11996
7 *13:11 *13:4 6
8 *13:9 *13:11 2.07999
9 *13:8 *74:B 6
10 *13:8 *13:9 6
11 *13:7 *13:8 0.15802
*END

*D_NET *14 0.00280475

*CONN
*I *91:A3 I *C 27.16 30.24 *L 0.0044 *D nr04d1
*I *80:B I *C 23.8 35.28 *L 0.00625 *D ah01d1
*I *77:Q O *C 17.64 36.96 *L 0 *D dfcrq1

*CAP
1 *91:A3 6.95971e-05
2 *80:B 6.95971e-05
3 *77:Q 8.13845e-05
4 *14:3 0.000331592
5 *14:4 0.000338414
6 *14:5 7.61954e-05
7 *14:6 6.93833e-05
8 *14:7 0.000109789
9 *14:8 0.000109789
10 *14:9 0.000307415
11 *14:10 0.00063684
12 *14:11 6.56227e-05
13 *14:12 0.000345187
14 *14:13 0.00012832
15 *14:14 6.56227e-05

*RES
1 *14:6 *91:A3 6
2 *14:6 *14:5 0.160034
3 *14:5 *14:4 0.160034
4 *14:7 *80:B 6
5 *14:4 *14:3 1.11996
6 *14:8 *14:7 0.319977
7 *14:9 *14:3 6
8 *14:10 *14:8 6
9 *14:10 *14:9 1.11996
10 *14:12 *14:10 1.28
11 *14:11 *14:12 6
12 *14:11 *14:14 0.160034
13 *14:13 *14:14 6
14 *77:Q *14:13 0.389557
*END

*D_NET *15 0.00276488

*CONN
*I *93:A1 I *C 25.48 24.64 *L 0.00373 *D nd12d1
*I *84:A2 I *C 22.12 24.08 *L 0.00381 *D an02d1
*I *79:C2 I *C 28.84 25.2 *L 0.00488 *D aoim211d1
*I *76:Q O *C 23.8 17.92 *L 0 *D dfcrq1

*CAP
1 *93:A1 0.000101265
2 *84:A2 6.95984e-05
3 *79:C2 6.95984e-05
4 *76:Q 6.95984e-05
5 *15:4 0.000254061
6 *15:5 0.000297661
7 *15:6 6.67499e-05
8 *15:7 0.00034698
9 *15:8 0.000302819
10 *15:9 0.00014607
11 *15:10 6.56795e-05
12 *15:11 0.000383320625
13 *15:12 0.000383320625
14 *15:14 0.00014821
15 *15:15 5.99416e-05

*RES
1 *15:4 *84:A2 6
2 *15:5 *15:4 0.960022
3 *15:10 *76:Q 6
4 *15:5 *15:9 0.319977
5 *15:10 *15:9 0.160034
6 *15:14 *93:A1 0.584381
7 *15:9 *15:8 0.160034
8 *15:7 *15:14 6
9 *15:8 *15:7 1.11996
10 *15:7 *15:6 0.160034
11 *15:12 *15:6 6
12 *15:12 *15:11 1.44003
13 *15:15 *79:C2 6
14 *15:15 *15:11 6
15 *15:13 *15:15 0.15802
*END

*D_NET *16 0.00210736

*CONN
*I *87:B I *C 15.96 30.8 *L 0.00625 *D ah01d1
*I *85:Q O *C 7.56 25.76 *L 0 *D dfcrq1

*CAP
1 *87:B 6.95987e-05
2 *85:Q 6.95987e-05
3 *16:2 0.000386017
4 *16:3 0.000393911
5 *16:4 0.00056415
6 *16:5 0.00056415
7 *16:7 5.99401e-05

*RES
1 *16:2 *87:B 6
2 *16:3 *16:2 1.44003
3 *16:4 *16:3 6
4 *16:5 *16:4 2.39996
5 *16:7 *16:5 6
6 *16:7 *85:Q 6
7 *16:6 *16:7 0.15802
*END

*D_NET *17 0.00113499

*CONN
*I *90:A I *C 22.12 19.04 *L 0.0063 *D ah01d1
*I *89:Q O *C 15.96 17.92 *L 0 *D dfcrq1

*CAP
1 *90:A 6.96012e-05
2 *89:Q 6.96012e-05
3 *17:2 0.00011073
4 *17:3 0.00011073
5 *17:4 0.00035719
6 *17:5 0.00035719
7 *17:7 5.99377e-05

*RES
1 *17:2 *90:A 6
2 *17:3 *17:2 0.319977
3 *17:4 *17:3 6
4 *17:5 *17:4 1.59998
5 *17:7 *17:5 6
6 *17:7 *89:Q 6
7 *17:6 *17:7 0.15802
*END

*D_NET *18 0.00198127

*CONN
*I *95:QN O *C 17.64 12.32 *L 0 *D dfcrb1
*I *95:D I *C 7.56 13.44 *L 0.00251 *D dfcrb1

*CAP
1 *95:QN 6.96039e-05
2 *95:D 6.96039e-05
3 *18:3 8.50031e-05
4 *18:4 8.50031e-05
5 *18:5 0.00080606
6 *18:6 5.99364e-05
7 *18:7 0.00080606

*RES
1 *18:3 *95:D 6
2 *18:3 *18:4 0.160034
3 *18:5 *18:4 6
4 *18:5 *18:7 2.87997
5 *18:6 *18:7 6
6 *18:6 *95:QN 6
7 *18:2 *18:6 0.15802
*END

*D_NET *19 0.0015687

*CONN
*I *95:Q O *C 16.52 12.32 *L 0 *D dfcrb1
*I *90:B I *C 21 19.6 *L 0.00625 *D ah01d1

*CAP
1 *95:Q 6.96006e-05
2 *90:B 6.96006e-05
3 *19:2 0.000172409
4 *19:3 0.000172409
5 *19:4 0.00036429
6 *19:5 0.000178051
7 *19:6 0.00036429
8 *19:7 0.000178051

*RES
1 *19:7 *90:B 6
2 *19:5 *19:7 0.960022
3 *19:6 *19:5 6
4 *19:4 *19:6 1.28
5 *19:3 *19:4 6
6 *19:2 *19:3 0.640045
7 *95:Q *19:2 6
*END

*D_NET *20 0.0012245

*CONN
*I *93:ZN O *C 27.72 23.52 *L 0 *D nd12d1
*I *91:A4 I *C 28.28 31.36 *L 0.0044 *D nr04d1

*CAP
1 *93:ZN 6.9601e-05
2 *91:A4 6.9601e-05
3 *20:2 0.000393473
4 *20:3 0.00040029
5 *20:4 0.000149183
6 *20:5 0.00014236

*RES
1 *20:5 *91:A4 6
2 *20:4 *20:5 0.480011
3 *20:3 *20:4 0.160034
4 *20:2 *20:3 1.59998
5 *93:ZN *20:2 6
*END

*D_NET *21 0.00183862

*CONN
*I *91:ZN O *C 28.28 29.12 *L 0 *D nr04d1
*I *88:A2 I *C 37.24 30.8 *L 0.00446 *D nd04d1

*CAP
1 *91:ZN 6.96011e-05
2 *88:A2 6.96011e-05
3 *21:2 0.00062211
4 *21:3 0.00062211
5 *21:4 0.000124849
6 *21:5 0.000124849
7 *21:6 0.00010275
8 *21:7 0.00010275

*RES
1 *21:5 *88:A2 6
2 *21:5 *21:4 0.319977
3 *21:2 *21:4 6
4 *21:3 *21:2 2.87997
5 *21:7 *21:3 6
6 *21:6 *21:7 0.160034
7 *91:ZN *21:6 6
*END

*D_NET *22 0.00186905

*CONN
*I *90:CO O *C 17.08 20.16 *L 0 *D ah01d1
*I *87:A I *C 14.84 30.24 *L 0.0063 *D ah01d1

*CAP
1 *90:CO 6.95985e-05
2 *87:A 6.95985e-05
3 *22:2 0.00046528
4 *22:3 0.000318145
5 *22:4 0.000281128
6 *22:5 0.000274305
7 *22:6 0.000118523
8 *22:7 0.00027248

*RES
1 *22:5 *87:A 6
2 *22:4 *22:5 0.960022
3 *22:6 *90:CO 6
4 *22:3 *22:4 0.160034
5 *22:6 *22:7 0.480011
6 *22:2 *22:3 1.44003
7 *22:2 *22:7 0.799988
*END

*D_NET *23 0.00187285

*CONN
*I *90:S O *C 18.76 20.16 *L 0 *D ah01d1
*I *89:D I *C 7.56 19.04 *L 0.00251 *D dfcrq1

*CAP
1 *90:S 6.95935e-05
2 *89:D 6.95935e-05
3 *23:2 0.00074841
4 *23:3 0.00074841
5 *23:5 8.84479e-05
6 *23:6 8.84479e-05
7 *23:7 5.99436e-05

*RES
1 *23:5 *89:D 6
2 *23:5 *23:6 0.160034
3 *23:3 *23:6 6
4 *23:3 *23:2 3.04001
5 *23:7 *23:2 6
6 *23:7 *90:S 6
7 *23:4 *23:7 0.15802
*END

*D_NET *24 0.00148868

*CONN
*I *88:ZN O *C 39.48 29.68 *L 0 *D nd04d1
*I *86:A3 I *C 39.48 19.04 *L 0.0051 *D nr03d1

*CAP
1 *88:ZN 6.95977e-05
2 *86:A3 6.95977e-05
3 *24:2 0.000600924
4 *24:3 0.00060774
5 *24:4 6.70012e-05
6 *24:5 7.38172e-05

*RES
1 *24:4 *86:A3 6
2 *24:4 *24:5 0.160034
3 *24:2 *88:ZN 6
4 *24:3 *24:5 0.160034
5 *24:3 *24:2 2.87997
*END

*D_NET *25 0.0012702

*CONN
*I *87:S O *C 18.2 31.36 *L 0 *D ah01d1
*I *85:D I *C 15.96 24.64 *L 0.00251 *D dfcrq1

*CAP
1 *87:S 6.96012e-05
2 *85:D 6.96012e-05
3 *25:2 0.000171773
4 *25:3 5.4602e-05
5 *25:4 0.0005109
6 *25:5 0.000393729

*RES
1 *25:5 *87:S 6
2 *25:4 *25:5 1.76001
3 *25:2 *25:4 0.640045
4 *25:3 *25:2 0.160034
5 *85:D *25:3 6
*END

*D_NET *26 0.000856713

*CONN
*I *86:ZN O *C 37.24 20.16 *L 0 *D nr03d1
*I *83:A1 I *C 36.12 24.08 *L 0.00345 *D an02d1

*CAP
1 *86:ZN 8.60219e-05
2 *83:A1 6.96019e-05
3 *26:2 0.00028811
4 *26:3 0.00028811
5 *26:4 0.000124872

*RES
1 *26:2 *83:A1 6
2 *26:3 *26:2 1.11996
3 *26:4 *26:3 6
4 *26:4 *86:ZN 0.389557
*END

*D_NET *27 0.00343599

*CONN
*I *87:CO O *C 19.88 31.36 *L 0 *D ah01d1
*I *84:A1 I *C 21 24.08 *L 0.00345 *D an02d1
*I *83:A2 I *C 35 24.08 *L 0.00381 *D an02d1
*I *79:C1 I *C 28.28 24.08 *L 0.00479 *D aoim211d1

*CAP
1 *87:CO 6.95977e-05
2 *84:A1 7.46176e-05
3 *83:A2 6.95977e-05
4 *79:C1 6.95977e-05
5 *27:4 0.000351377
6 *27:5 0.000406058
7 *27:6 0.00103779
8 *27:7 0.000591557
9 *27:10 7.04529e-05
10 *27:11 0.000113463
11 *27:12 5.9938e-05
12 *27:13 5.9938e-05
13 *27:14 0.000462021

*RES
1 *27:11 *84:A1 0.389557
2 *27:4 *87:CO 6
3 *27:5 *27:11 6
4 *27:5 *27:4 1.44003
5 *27:10 *27:5 0.160034
6 *27:13 *83:A2 6
7 *27:9 *27:13 0.15802
8 *27:7 *27:10 6
9 *27:14 *27:13 6
10 *27:7 *27:6 2.39996
11 *27:6 *27:14 1.92004
12 *27:12 *79:C1 6
13 *27:12 *27:6 6
14 *27:8 *27:12 0.15802
*END

*D_NET *28 0.000833123

*CONN
*I *82:ZN O *C 47.32 42 *L 0 *D inv0d0
*I *78:I1 I *C 50.68 41.44 *L 0.00429 *D mx02d1

*CAP
1 *82:ZN 6.95991e-05
2 *78:I1 6.95991e-05
3 *28:2 7.10112e-05
4 *28:3 7.10112e-05
5 *28:5 0.00015372
6 *28:6 5.99399e-05
7 *28:7 0.00015372
8 *28:7 *42:40 9.226e-05
9 *28:5 *42:41 9.22599989e-05

*RES
1 *28:2 *82:ZN 6
2 *28:3 *28:2 0.160034
3 *28:5 *28:3 6
4 *28:5 *28:7 0.960022
5 *28:6 *78:I1 6
6 *28:6 *28:7 6
7 *28:4 *28:6 0.15802
*END

*D_NET *29 0.00288556

*CONN
*I *84:Z O *C 23.24 22.96 *L 0 *D an02d1
*I *80:A I *C 24.92 35.84 *L 0.0063 *D ah01d1
*I *79:B I *C 30.52 25.2 *L 0.00493 *D aoim211d1

*CAP
1 *84:Z 0.000131347
2 *80:A 6.96004e-05
3 *79:B 6.96004e-05
4 *29:3 6.70933e-05
5 *29:4 6.70933e-05
6 *29:5 0.00067588
7 *29:6 0.00072701
8 *29:7 6.68936e-05
9 *29:8 0.000420431
10 *29:9 0.000420431
11 *29:10 0.000170185

*RES
1 *29:4 *79:B 6
2 *29:4 *29:3 0.160034
3 *29:8 *29:3 6
4 *29:9 *29:8 1.59998
5 *29:5 *80:A 6
6 *29:6 *29:9 6
7 *29:6 *29:5 2.72003
8 *29:7 *29:6 0.160034
9 *29:10 *29:7 6
10 *84:Z *29:10 0.584381
*END

*D_NET *30 0.000915393

*CONN
*I *80:CO O *C 19.88 34.72 *L 0 *D ah01d1
*I *74:A I *C 20.44 41.44 *L 0.0063 *D ah01d1

*CAP
1 *80:CO 6.95988e-05
2 *74:A 6.95988e-05
3 *30:2 6.56179e-05
4 *30:3 7.24381e-05
5 *30:4 0.00032248
6 *30:5 0.00031566

*RES
1 *30:5 *74:A 6
2 *30:4 *30:5 1.28
3 *30:3 *30:4 0.160034
4 *30:2 *30:3 0.160034
5 *80:CO *30:2 6
*END

*D_NET *31 0.00222265

*CONN
*I *80:S O *C 21.56 34.72 *L 0 *D ah01d1
*I *77:D I *C 9.24 35.84 *L 0.00251 *D dfcrq1

*CAP
1 *80:S 6.9596e-05
2 *77:D 6.9596e-05
3 *31:2 6.83224e-05
4 *31:3 6.83224e-05
5 *31:4 0.000148179
6 *31:5 0.0001548
7 *31:6 0.00059195
8 *31:7 0.0001548
9 *31:8 0.00059195
10 *31:9 7.8475e-05
11 *31:10 7.8475e-05
12 *31:11 0.000148179

*RES
1 *31:9 *80:S 6
2 *31:9 *31:10 0.319977
3 *31:11 *31:10 6
4 *31:7 *31:11 0.480011
5 *31:7 *31:8 0.160034
6 *31:6 *31:8 2.39996
7 *31:5 *31:6 0.160034
8 *31:4 *31:5 0.480011
9 *31:3 *31:4 6
10 *31:2 *31:3 0.160034
11 *77:D *31:2 6
*END

*D_NET *32 0.000897643

*CONN
*I *79:ZN O *C 31.64 25.2 *L 0 *D aoim211d1
*I *76:D I *C 32.2 19.04 *L 0.00251 *D dfcrq1

*CAP
1 *79:ZN 3.78988e-05
2 *76:D 6.96012e-05
3 *32:2 0.000317
4 *32:3 8.25937e-05
5 *32:4 0.000317
6 *32:5 7.35531e-05

*RES
1 *32:2 *76:D 6
2 *32:2 *32:4 1.28
3 *32:3 *32:4 6
4 *32:3 *32:5 0.194824
5 *79:ZN *32:5 0.194824
*END

*D_NET *33 0.00124429

*CONN
*I *78:Z O *C 47.88 40.32 *L 0 *D mx02d1
*I *75:D I *C 46.76 47.04 *L 0.00251 *D dfcrq1

*CAP
1 *78:Z 6.95979e-05
2 *75:D 6.95979e-05
3 *33:2 0.00021051
4 *33:3 0.000136944
5 *33:4 0.00030812
6 *33:5 0.000301303
7 *33:6 0.000148218

*RES
1 *33:5 *75:D 6
2 *33:4 *33:5 1.28
3 *33:3 *33:4 0.160034
4 *33:6 *78:Z 6
5 *33:2 *33:3 0.640045
6 *33:2 *33:6 0.480011
*END

*D_NET *34 0.000221739

*CONN
*I *74:CO O *C 25.48 42.56 *L 0 *D ah01d1
*I *72:A I *C 27.16 41.44 *L 0.0063 *D ah01d1

*CAP
1 *74:CO 3.72997e-05
2 *34:2 3.72997e-05
3 *34:3 7.357e-05
4 *34:4 7.357e-05

*RES
1 *34:4 *72:A 6
2 *34:3 *34:4 0.319977
3 *34:2 *34:3 6
4 *74:CO *34:2 0.194824
*END

*D_NET *35 0.00131628

*CONN
*I *74:S O *C 23.8 42.56 *L 0 *D ah01d1
*I *73:D I *C 19.88 47.04 *L 0.00251 *D dfcrq1

*CAP
1 *74:S 6.96027e-05
2 *73:D 6.96027e-05
3 *35:2 0.00050486
4 *35:3 0.000277332
5 *35:4 8.36773e-05
6 *35:5 0.000311205

*RES
1 *35:4 *74:S 6
2 *35:3 *73:D 6
3 *35:4 *35:5 0.160034
4 *35:2 *35:3 1.11996
5 *35:2 *35:5 1.11996
*END

*D_NET *36 0.00159747

*CONN
*I *72:S O *C 30.52 42.56 *L 0 *D ah01d1
*I *71:D I *C 32.2 52.64 *L 0.00251 *D dfcrq1

*CAP
1 *72:S 6.96022e-05
2 *71:D 6.96022e-05
3 *36:2 7.03494e-05
4 *36:3 0.000113946
5 *36:4 0.000126535
6 *36:5 0.000232416
7 *36:6 0.00053225
8 *36:7 0.000382772

*RES
1 *36:7 *71:D 6
2 *36:6 *36:7 1.59998
3 *36:5 *36:6 0.960022
4 *36:4 *36:5 0.319977
5 *36:3 *36:4 0.319977
6 *36:2 *36:3 0.160034
7 *72:S *36:2 6
*END

*D_NET *37 0.00125428

*CONN
*I *72:CO O *C 32.2 42.56 *L 0 *D ah01d1
*I *70:A1 I *C 35.56 42 *L 0.00345 *D an02d1
*I *68:C1 I *C 38.36 42 *L 0.00479 *D aoim211d1

*CAP
1 *72:CO 0.000223838
2 *70:A1 0.00027078
3 *68:C1 6.96008e-05
4 *37:3 0.000148358
5 *37:4 6.79687e-05
6 *37:5 0.000149783
7 *37:6 0.000112993
8 *37:7 0.000127277
9 *37:8 8.3678e-05

*RES
1 *37:8 *68:C1 6
2 *37:7 *37:8 0.160034
3 *37:6 *37:7 0.319977
4 *37:5 *37:6 0.160034
5 *37:3 *37:5 0.480011
6 *37:3 *37:4 0.160034
7 *70:A1 *37:4 6
8 *72:CO *70:A1 1.16867
*END

*D_NET *38 0.00403473

*CONN
*I *70:Z O *C 37.8 43.12 *L 0 *D an02d1
*I *69:A1 I *C 40.6 30.8 *L 0.00345 *D an02d1
*I *68:B I *C 40.6 40.88 *L 0.00493 *D aoim211d1
*I *65:C1 I *C 36.68 30.8 *L 0.00479 *D aoim211d1

*CAP
1 *70:Z 6.96003e-05
2 *69:A1 6.96003e-05
3 *68:B 6.96003e-05
4 *65:C1 6.96003e-05
5 *38:4 0.000450449
6 *38:5 0.000376878
7 *38:6 0.00033015
8 *38:7 0.00033015
9 *38:8 0.00070904
10 *38:9 0.00070904
11 *38:12 0.000154715
12 *38:13 0.000161542
13 *38:14 0.000307375
14 *38:15 0.000226977

*RES
1 *38:15 *70:Z 6
2 *38:8 *68:B 6
3 *38:14 *38:15 0.799988
4 *38:9 *69:A1 6
5 *38:11 *38:9 0.15802
6 *38:9 *38:8 2.72003
7 *38:4 *38:14 0.480011
8 *38:6 *38:9 6
9 *38:5 *38:4 1.44003
10 *38:7 *38:6 1.11996
11 *38:5 *38:13 0.160034
12 *38:12 *65:C1 6
13 *38:12 *38:7 6
14 *38:12 *38:13 0.480011
15 *38:10 *38:12 0.15802
*END

*D_NET *39 0.0011432

*CONN
*I *68:ZN O *C 41.72 40.88 *L 0 *D aoim211d1
*I *66:D I *C 41.72 47.04 *L 0.00251 *D dfcrq1

*CAP
1 *68:ZN 6.9599e-05
2 *66:D 6.9599e-05
3 *39:2 0.000502
4 *39:3 0.000502

*RES
1 *39:3 *66:D 6
2 *39:2 *39:3 1.76001
3 *68:ZN *39:2 6
*END

*D_NET *40 0.00333869

*CONN
*I *69:Z O *C 42.84 31.92 *L 0 *D an02d1
*I *67:A1 I *C 49.56 30.8 *L 0.00345 *D an02d1
*I *65:A I *C 33.88 30.24 *L 0.00528 *D aoim211d1
*I *63:C1 I *C 49 30.8 *L 0.00479 *D aoim211d1

*CAP
1 *69:Z 6.9608e-05
2 *67:A1 3.79012e-05
3 *65:A 6.9608e-05
4 *63:C1 8.48353e-05
5 *40:4 0.000138365
6 *40:5 0.000138365
7 *40:6 8.47518e-05
8 *40:7 8.47518e-05
9 *40:8 0.00109421
10 *40:9 0.000645807
11 *40:10 0.000213165
12 *40:11 0.000464181
13 *40:12 0.000213165

*RES
1 *63:C1 *67:A1 0.194824
2 *40:12 *63:C1 6
3 *40:10 *40:12 0.640045
4 *40:6 *69:Z 6
5 *40:11 *40:10 6
6 *40:7 *40:6 0.160034
7 *40:8 *40:11 1.76001
8 *40:8 *40:7 6
9 *40:4 *65:A 6
10 *40:9 *40:8 2.56
11 *40:5 *40:4 0.480011
12 *40:5 *40:9 6
*END

*D_NET *41 0.00104985

*CONN
*I *65:ZN O *C 33.32 29.68 *L 0 *D aoim211d1
*I *64:D I *C 34.44 35.84 *L 0.00251 *D dfcrq1

*CAP
1 *65:ZN 6.96005e-05
2 *64:D 6.96005e-05
3 *41:2 0.000183133
4 *41:3 0.000139534
5 *41:4 0.00031579
6 *41:5 0.000272191

*RES
1 *41:5 *64:D 6
2 *41:4 *41:5 1.11996
3 *41:2 *41:4 0.319977
4 *41:3 *41:2 0.640045
5 *65:ZN *41:3 6
*END

*D_NET *42 0.0126416

*CONN
*I *83:Z O *C 33.88 22.96 *L 0 *D an02d1
*I *82:I I *C 46.76 41.44 *L 0.0017 *D inv0d0
*I *81:D I *C 46.2 13.44 *L 0.00251 *D dfcrq1
*I *79:A I *C 31.08 24.64 *L 0.00528 *D aoim211d1
*I *78:I0 I *C 49 42 *L 0.00482 *D mx02d1