*SPEF "IEEE 1481-1998"
*DESIGN "row_sequencer_v2"
*DATE "Thu May 14 06:53:47 2026"
*VENDOR "Cadence Design Systems, Inc."
*PROGRAM "Innovus"
*VERSION "21.15-s110_1"
*DESIGN_FLOW "COUPLING C" "PIN_CAP NONE" "NAME_SCOPE LOCAL"
*DIVIDER /
*DELIMITER :
*BUS_DELIMITER []
*T_UNIT 1 NS
*C_UNIT 1 PF
*R_UNIT 1 OHM
*L_UNIT 1 HENRY

// MMMC spef file for corner 'default_rc_corner'

*NAME_MAP

*1 FE_OFN605_FE_OFN16_rst_n_s
*2 FE_OFN604_n_597
*3 FE_OFN603_n_301
*4 CTS_1
*5 CTS_4
*6 CTS_3
*7 FE_OFN602_n_635
*8 FE_OFN601_tdi_en_s
*9 FE_OFN29_n_143
*10 FE_OFN28_n_341
*11 FE_OFN27_n_339
*12 FE_OFN25_n_207
*13 FE_OFN20_n_366
*14 FE_OFN19_n_112
*15 FE_OFN17_rst_n_s
*16 FE_OFN16_rst_n_s
*17 FE_OFN15_rst_n_s
*18 FE_OFN13_n_589
*19 FE_OFN9_n_462
*20 FE_OFN4_line_cnt_2
*21 FE_OFN3_line_cnt_4
*22 FE_OFN2_FE_DBTN0_tdi_en_s
*23 FE_OFN1_FE_DBTN0_tdi_en_s
*24 FE_DBTN0_tdi_en_s
*25 clk
*26 rst_n
*27 tdi_enable
*28 TX[59]
*29 TX[58]
*30 TX[57]
*31 TX[56]
*32 TX[55]
*33 TX[54]
*34 TX[53]
*35 TX[52]
*36 TX[51]
*37 TX[50]
*38 TX[49]
*39 TX[48]
*40 TX[47]
*41 TX[46]
*42 TX[45]
*43 TX[44]
*44 TX[43]
*45 TX[42]
*46 TX[41]
*47 TX[40]
*48 TX[39]
*49 TX[38]
*50 TX[37]
*51 TX[36]
*52 TX[35]
*53 TX[34]
*54 TX[33]
*55 TX[32]
*56 TX[31]
*57 TX[30]
*58 TX[29]
*59 TX[28]
*60 TX[27]
*61 TX[26]
*62 TX[25]
*63 TX[24]
*64 TX[23]
*65 TX[22]
*66 TX[21]
*67 TX[20]
*68 TX[19]
*69 TX[18]
*70 TX[17]
*71 TX[16]
*72 TX[15]
*73 TX[14]
*74 TX[13]
*75 TX[12]
*76 TX[11]
*77 TX[10]
*78 TX[9]
*79 TX[8]
*80 TX[7]
*81 TX[6]
*82 TX[5]
*83 TX[4]
*84 TX[3]
*85 TX[2]
*86 TX[1]
*87 TX[0]
*88 RST[59]
*89 RST[58]
*90 RST[57]
*91 RST[56]
*92 RST[55]
*93 RST[54]
*94 RST[53]
*95 RST[52]
*96 RST[51]
*97 RST[50]
*98 RST[49]
*99 RST[48]
*100 RST[47]
*101 RST[46]
*102 RST[45]
*103 RST[44]
*104 RST[43]
*105 RST[42]
*106 RST[41]
*107 RST[40]
*108 RST[39]
*109 RST[38]
*110 RST[37]
*111 RST[36]
*112 RST[35]
*113 RST[34]
*114 RST[33]
*115 RST[32]
*116 RST[31]
*117 RST[30]
*118 RST[29]
*119 RST[28]
*120 RST[27]
*121 RST[26]
*122 RST[25]
*123 RST[24]
*124 RST[23]
*125 RST[22]
*126 RST[21]
*127 RST[20]
*128 RST[19]
*129 RST[18]
*130 RST[17]
*131 RST[16]
*132 RST[15]
*133 RST[14]
*134 RST[13]
*135 RST[12]
*136 RST[11]
*137 RST[10]
*138 RST[9]
*139 RST[8]
*140 RST[7]
*141 RST[6]
*142 RST[5]
*143 RST[4]
*144 RST[3]
*145 RST[2]
*146 RST[1]
*147 RST[0]
*148 SEL[59]
*149 SEL[58]
*150 SEL[57]
*151 SEL[56]
*152 SEL[55]
*153 SEL[54]
*154 SEL[53]
*155 SEL[52]
*156 SEL[51]
*157 SEL[50]
*158 SEL[49]
*159 SEL[48]
*160 SEL[47]
*161 SEL[46]
*162 SEL[45]
*163 SEL[44]
*164 SEL[43]
*165 SEL[42]
*166 SEL[41]
*167 SEL[40]
*168 SEL[39]
*169 SEL[38]
*170 SEL[37]
*171 SEL[36]
*172 SEL[35]
*173 SEL[34]
*174 SEL[33]
*175 SEL[32]
*176 SEL[31]
*177 SEL[30]
*178 SEL[29]
*179 SEL[28]
*180 SEL[27]
*181 SEL[26]
*182 SEL[25]
*183 SEL[24]
*184 SEL[23]
*185 SEL[22]
*186 SEL[21]
*187 SEL[20]
*188 SEL[19]
*189 SEL[18]
*190 SEL[17]
*191 SEL[16]
*192 SEL[15]
*193 SEL[14]
*194 SEL[13]
*195 SEL[12]
*196 SEL[11]
*197 SEL[10]
*198 SEL[9]
*199 SEL[8]
*200 SEL[7]
*201 SEL[6]
*202 SEL[5]
*203 SEL[4]
*204 SEL[3]
*205 SEL[2]
*206 SEL[1]
*207 SEL[0]
*208 line_done
*209 frame_done
*210 row_cnt[5]
*211 row_cnt[4]
*212 row_cnt[3]
*213 row_cnt[2]
*214 row_cnt[1]
*215 row_cnt[0]
*216 line_cnt[12]
*217 line_cnt[11]
*218 line_cnt[10]
*219 line_cnt[9]
*220 line_cnt[8]
*221 line_cnt[7]
*222 line_cnt[6]
*223 line_cnt[5]
*224 line_cnt[4]
*225 line_cnt[3]
*226 line_cnt[2]
*227 line_cnt[1]
*228 line_cnt[0]
*229 en_meta
*230 n_0
*231 n_1
*232 n_2
*233 n_3
*234 n_4
*235 n_5
*236 n_6
*237 n_8
*238 n_9
*239 n_10
*240 n_11
*241 n_12
*242 n_13
*243 n_14
*244 n_15
*245 n_16
*246 n_17
*247 n_18
*248 n_19
*249 n_20
*250 n_21
*251 n_22
*252 n_23
*253 n_24
*254 n_25
*255 n_26
*256 n_27
*257 n_28
*258 n_29
*259 n_30
*260 n_31
*261 n_32
*262 n_33
*263 n_34
*264 n_35
*265 n_36
*266 n_37
*267 n_38
*268 n_39
*269 n_40
*270 n_41
*271 n_42
*272 n_43
*273 n_44
*274 n_45
*275 n_46
*276 n_47
*277 n_48
*278 n_49
*279 n_50
*280 n_51
*281 n_52
*282 n_53
*283 n_55
*284 n_56
*285 n_57
*286 n_58
*287 n_59
*288 n_60
*289 n_61
*290 n_62
*291 n_63
*292 n_64
*293 n_65
*294 n_66
*295 n_67
*296 n_68
*297 n_69
*298 n_70
*299 n_71
*300 n_72
*301 n_73
*302 n_74
*303 n_75
*304 n_76
*305 n_77
*306 n_78
*307 n_79
*308 n_80
*309 n_81
*310 n_82
*311 n_83
*312 n_84
*313 n_85
*314 n_86
*315 n_87
*316 n_88
*317 n_89
*318 n_92
*319 n_93
*320 n_94
*321 n_95
*322 n_96
*323 n_97
*324 n_98
*325 n_99
*326 n_100
*327 n_101
*328 n_102
*329 n_103
*330 n_104
*331 n_105
*332 n_106
*333 n_107
*334 n_109
*335 n_110
*336 n_111
*337 n_112
*338 n_113
*339 n_114
*340 n_115
*341 n_116
*342 n_117
*343 n_118
*344 n_119
*345 n_120
*346 n_121
*347 n_122
*348 n_131
*349 n_132
*350 n_133
*351 n_134
*352 n_135
*353 n_136
*354 n_137
*355 n_138
*356 n_139
*357 n_140
*358 n_141
*359 n_142
*360 n_143
*361 n_144
*362 n_145
*363 n_146
*364 n_147
*365 n_148
*366 n_149
*367 n_150
*368 n_151
*369 n_152
*370 n_153
*371 n_154
*372 n_155
*373 n_156
*374 n_157
*375 n_158
*376 n_159
*377 n_160
*378 n_161
*379 n_162
*380 n_163
*381 n_164
*382 n_165
*383 n_166
*384 n_167
*385 n_168
*386 n_169
*387 n_170
*388 n_171
*389 n_172
*390 n_173
*391 n_174
*392 n_175
*393 n_176
*394 n_177
*395 n_178
*396 n_179
*397 n_180
*398 n_181
*399 n_182
*400 n_183
*401 n_184
*402 n_185
*403 n_186
*404 n_187
*405 n_188
*406 n_189
*407 n_190
*408 n_191
*409 n_192
*410 n_193
*411 n_194
*412 n_195
*413 n_196
*414 n_197
*415 n_198
*416 n_199
*417 n_200
*418 n_201
*419 n_202
*420 n_203
*421 n_204
*422 n_205
*423 n_206
*424 n_207
*425 n_208
*426 n_209
*427 n_210
*428 n_211
*429 n_212
*430 n_213
*431 n_214
*432 n_215
*433 n_216
*434 n_217
*435 n_218
*436 n_219
*437 n_220
*438 n_221
*439 n_222
*440 n_223
*441 n_224
*442 n_225
*443 n_226
*444 n_227
*445 n_228
*446 n_229
*447 n_230
*448 n_231
*449 n_232
*450 n_233
*451 n_234
*452 n_235
*453 n_236
*454 n_237
*455 n_238
*456 n_239
*457 n_240
*458 n_241
*459 n_242
*460 n_243
*461 n_244
*462 n_245
*463 n_246
*464 n_247
*465 n_248
*466 n_249
*467 n_250
*468 n_251
*469 n_252
*470 n_253
*471 n_254
*472 n_255
*473 n_256
*474 n_257
*475 n_258
*476 n_259
*477 n_260
*478 n_261
*479 n_262
*480 n_263
*481 n_264
*482 n_265
*483 n_266
*484 n_267
*485 n_268
*486 n_269
*487 n_270
*488 n_271
*489 n_272
*490 n_273
*491 n_274
*492 n_275
*493 n_276
*494 n_277
*495 n_278
*496 n_279
*497 n_280
*498 n_281
*499 n_282
*500 n_283
*501 n_284
*502 n_285
*503 n_286
*504 n_287
*505 n_288
*506 n_289
*507 n_290
*508 n_291
*509 n_292
*510 n_293
*511 n_294
*512 n_295
*513 n_296
*514 n_297
*515 n_298
*516 n_299
*517 n_300
*518 n_301
*519 n_302
*520 n_303
*521 n_304
*522 n_305
*523 n_306
*524 n_307
*525 n_308
*526 n_309
*527 n_310
*528 n_311
*529 n_312
*530 n_313
*531 n_314
*532 n_315
*533 n_316
*534 n_317
*535 n_318
*536 n_319
*537 n_320
*538 n_321
*539 n_322
*540 n_323
*541 n_324
*542 n_325
*543 n_326
*544 n_327
*545 n_328
*546 n_329
*547 n_330
*548 n_331
*549 n_332
*550 n_333
*551 n_334
*552 n_335
*553 n_336
*554 n_337
*555 n_338
*556 n_339
*557 n_340
*558 n_341
*559 n_342
*560 n_343
*561 n_344
*562 n_345
*563 n_346
*564 n_347
*565 n_348
*566 n_349
*567 n_350
*568 n_351
*569 n_352
*570 n_353
*571 n_354
*572 n_355
*573 n_356
*574 n_357
*575 n_358
*576 n_359
*577 n_360
*578 n_361
*579 n_362
*580 n_363
*581 n_364
*582 n_365
*583 n_366
*584 n_367
*585 n_368
*586 n_369
*587 n_370
*588 n_371
*589 n_372
*590 n_373
*591 n_374
*592 n_375
*593 n_376
*594 n_377
*595 n_378
*596 n_379
*597 n_380
*598 n_381
*599 n_382
*600 n_383
*601 n_384
*602 n_385
*603 n_386
*604 n_387
*605 n_388
*606 n_389
*607 n_390
*608 n_391
*609 n_392
*610 n_393
*611 n_394
*612 n_395
*613 n_396
*614 n_397
*615 n_398
*616 n_399
*617 n_400
*618 n_401
*619 n_402
*620 n_403
*621 n_404
*622 n_405
*623 n_406
*624 n_407
*625 n_408
*626 n_409
*627 n_410
*628 n_411
*629 n_412
*630 n_413
*631 n_414
*632 n_415
*633 n_416
*634 n_417
*635 n_418
*636 n_419
*637 n_420
*638 n_421
*639 n_422
*640 n_423
*641 n_424
*642 n_425
*643 n_426
*644 n_427
*645 n_428
*646 n_429
*647 n_430
*648 n_431
*649 n_432
*650 n_433
*651 n_434
*652 n_435
*653 n_436
*654 n_437
*655 n_438
*656 n_439
*657 n_440
*658 n_441
*659 n_442
*660 n_443
*661 n_444
*662 n_445
*663 n_446
*664 n_447
*665 n_448
*666 n_449
*667 n_450
*668 n_451
*669 n_452
*670 n_454
*671 n_455
*672 n_456
*673 n_457
*674 n_458
*675 n_459
*676 n_460
*677 n_461
*678 n_462
*679 n_463
*680 n_464
*681 n_465
*682 n_466
*683 n_467
*684 n_468
*685 n_469
*686 n_470
*687 n_471
*688 n_472
*689 n_473
*690 n_474
*691 n_475
*692 n_476
*693 n_477
*694 n_478
*695 n_479
*696 n_480
*697 n_481
*698 n_483
*699 n_484
*700 n_485
*701 n_486
*702 n_487
*703 n_488
*704 n_489
*705 n_490
*706 n_491
*707 n_492
*708 n_493
*709 n_494
*710 n_495
*711 n_496
*712 n_497
*713 n_498
*714 n_499
*715 n_500
*716 n_501
*717 n_502
*718 n_503
*719 n_504
*720 n_505
*721 n_506
*722 n_507
*723 n_508
*724 n_509
*725 n_510
*726 n_511
*727 n_512
*728 n_513
*729 n_514
*730 n_515
*731 n_516
*732 n_517
*733 n_518
*734 n_519
*735 n_520
*736 n_521
*737 n_522
*738 n_523
*739 n_524
*740 n_525
*741 n_526
*742 n_527
*743 n_528
*744 n_529
*745 n_530
*746 n_531
*747 n_532
*748 n_533
*749 n_534
*750 n_535
*751 n_536
*752 n_537
*753 n_538
*754 n_539
*755 n_540
*756 n_541
*757 n_542
*758 n_543
*759 n_544
*760 n_545
*761 n_546
*762 n_547
*763 n_548
*764 n_549
*765 n_550
*766 n_551
*767 n_552
*768 n_553
*769 n_554
*770 n_555
*771 n_556
*772 n_557
*773 n_558
*774 n_559
*775 n_560
*776 n_561
*777 n_562
*778 n_563
*779 n_564
*780 n_565
*781 n_566
*782 n_567
*783 n_568
*784 n_569
*785 n_570
*786 n_572
*787 n_573
*788 n_574
*789 n_575
*790 n_576
*791 n_577
*792 n_578
*793 n_579
*794 n_580
*795 n_581
*796 n_582
*797 n_583
*798 n_584
*799 n_585
*800 n_586
*801 n_587
*802 n_588
*803 n_589
*804 n_591
*805 n_592
*806 n_593
*807 n_594
*808 n_596
*809 n_597
*810 n_598
*811 n_599
*812 n_600
*813 n_601
*814 n_603
*815 n_605
*816 n_606
*817 n_607
*818 n_608
*819 n_609
*820 n_610
*821 n_611
*822 n_612
*823 n_613
*824 n_614
*825 n_615
*826 n_617
*827 n_618
*828 n_619
*829 n_620
*830 n_621
*831 n_622
*832 n_624
*833 n_625
*834 n_626
*835 n_627
*836 n_628
*837 n_629
*838 n_630
*839 n_631
*840 n_632
*841 n_633
*842 n_634
*843 n_635
*844 n_636
*845 n_637
*846 n_638
*847 n_639
*848 n_640
*849 n_641
*850 n_642
*851 n_643
*852 n_644
*853 n_645
*854 n_646
*855 n_647
*856 n_648
*857 n_649
*858 n_650
*859 n_651
*860 n_652
*861 n_656
*862 n_707
*863 rst_meta
*864 rst_n_s
*865 tdi_en_s
*866 FE_OFC49_FE_OFN16_rst_n_s
*867 FE_OFC48_n_597
*868 FE_OFC47_n_301
*869 FE_OFC46_FE_DBTN0_tdi_en_s
*870 FE_OFC45_FE_DBTN0_tdi_en_s
*871 FE_OFC44_301
*872 CTS_ccl_a_buf_00003
*873 CTS_ccl_a_buf_00002
*874 CTS_ccl_a_buf_00001
*875 FE_OFC43_n_635
*876 FE_OFC42_tdi_en_s
*877 FE_OFC40_n_538
*878 FE_OFC39_n_112
*879 FE_OFC38_n_112
*880 FE_OFC37_n_575
*881 FE_OFC36_n_597
*882 FE_OFC35_n_496
*883 FE_OFC32_n_561
*884 FE_OFC31_n_425
*885 FE_OFC30_n_294
*886 FE_OFC29_n_143
*887 FE_OFC28_n_341
*888 FE_OFC27_n_339
*889 FE_OFC25_n_207
*890 FE_OFC20_n_366
*891 FE_OFC17_rst_n_s
*892 FE_OFC16_rst_n_s
*893 FE_OFC15_rst_n_s
*894 FE_OFC13_n_589
*895 FE_OFC9_n_462
*896 FE_OFC4_line_cnt_2
*897 FE_OFC3_line_cnt_4
*898 FE_DBTC0_tdi_en_s
*899 row_cnt_reg\[5\]
*900 row_cnt_reg\[4\]
*901 row_cnt_reg\[3\]
*902 line_cnt_reg\[9\]
*903 line_cnt_reg\[7\]
*904 line_cnt_reg\[8\]
*905 g21282__2398
*906 g21283__5107
*907 g21286__6260
*908 g21350__4319
*909 g21349__8428
*910 frame_done_reg
*911 g21308__5526
*912 row_cnt_reg\[2\]
*913 g21287__6783
*914 g21284__3680
*915 line_cnt_reg\[12\]
*916 g21293__1617
*917 g21289__2802
*918 g21290__1705
*919 row_cnt_reg\[1\]
*920 line_cnt_reg\[11\]
*921 g21309__5122
*922 g21291__8246
*923 line_cnt_reg\[10\]
*924 g21520__7098
*925 SEL_reg\[10\]
*926 g21294__6131
*927 g21493__1881
*928 SEL_reg\[54\]
*929 TX_reg\[4\]
*930 TX_reg\[36\]
*931 RST_reg\[52\]
*932 SEL_reg\[12\]
*933 g21297__5115
*934 g21298__7482
*935 g21429__4733
*936 SEL_reg\[36\]
*937 SEL_reg\[4\]
*938 SEL_reg\[8\]
*939 SEL_reg\[40\]
*940 g21299__6161
*941 g21351__9315
*942 TX_reg\[28\]
*943 SEL_reg\[42\]
*944 SEL_reg\[22\]
*945 SEL_reg\[6\]
*946 TX_reg\[58\]
*947 SEL_reg\[14\]
*948 SEL_reg\[33\]
*949 SEL_reg\[32\]
*950 g21415__9945
*951 g21417__2883
*952 g21419__2346
*953 g21488__1666
*954 g21420__7410
*955 g21430__6417
*956 g21300
*957 RST_reg\[38\]
*958 RST_reg\[22\]
*959 SEL_reg\[18\]
*960 SEL_reg\[30\]
*961 SEL_reg\[44\]
*962 SEL_reg\[50\]
*963 TX_reg\[38\]
*964 RST_reg\[34\]
*965 SEL_reg\[28\]
*966 SEL_reg\[20\]
*967 TX_reg\[44\]
*968 SEL_reg\[0\]
*969 TX_reg\[12\]
*970 TX_reg\[18\]
*971 RST_reg\[37\]
*972 row_cnt_reg\[0\]
*973 line_cnt_reg\[6\]
*974 SEL_reg\[57\]
*975 SEL_reg\[24\]
*976 SEL_reg\[56\]
*977 SEL_reg\[46\]
*978 TX_reg\[26\]
*979 RST_reg\[2\]
*980 SEL_reg\[26\]
*981 RST_reg\[42\]
*982 SEL_reg\[16\]
*983 TX_reg\[11\]
*984 TX_reg\[50\]
*985 RST_reg\[20\]
*986 TX_reg\[6\]
*987 RST_reg\[29\]
*988 TX_reg\[45\]
*989 TX_reg\[8\]
*990 SEL_reg\[25\]
*991 RST_reg\[28\]
*992 RST_reg\[12\]
*993 TX_reg\[55\]
*994 SEL_reg\[45\]
*995 TX_reg\[29\]
*996 TX_reg\[21\]
*997 SEL_reg\[3\]
*998 line_cnt_reg\[3\]
*999 g21301__5477
*1000 g21481__2398
*1001 g21483__5107
*1002 g21418__6260
*1003 RST_reg\[21\]
*1004 g21491__4319
*1005 g21423__8428
*1006 RST_reg\[50\]
*1007 g21677__5526
*1008 g21346__6783
*1009 g21432__3680
*1010 g21347__1617
*1011 g21434__2802
*1012 g21438__1705
*1013 g21439__5122
*1014 RST_reg\[14\]
*1015 RST_reg\[6\]
*1016 RST_reg\[53\]
*1017 RST_reg\[30\]
*1018 SEL_reg\[52\]
*1019 TX_reg\[16\]
*1020 RST_reg\[18\]
*1021 RST_reg\[15\]
*1022 TX_reg\[10\]
*1023 g21636__8246
*1024 RST_reg\[58\]
*1025 SEL_reg\[48\]
*1026 TX_reg\[42\]
*1027 SEL_reg\[38\]
*1028 SEL_reg\[34\]
*1029 TX_reg\[40\]
*1030 g21471__7098
*1031 RST_reg\[26\]
*1032 TX_reg\[48\]
*1033 TX_reg\[34\]
*1034 TX_reg\[2\]
*1035 g21442__6131
*1036 TX_reg\[30\]
*1037 SEL_reg\[2\]
*1038 RST_reg\[44\]
*1039 SEL_reg\[29\]
*1040 SEL_reg\[39\]
*1041 TX_reg\[43\]
*1042 SEL_reg\[43\]
*1043 SEL_reg\[19\]
*1044 SEL_reg\[49\]
*1045 SEL_reg\[1\]
*1046 SEL_reg\[37\]
*1047 line_cnt_reg\[5\]
*1048 line_cnt_reg\[4\]
*1049 g21426__1881
*1050 g21587__5115
*1051 g21593__7482
*1052 g21399__4733
*1053 g21594__6161
*1054 g21595__9315
*1055 g21480__9945
*1056 g21482__2883
*1057 g21416__2346
*1058 g21606__1666
*1059 g21486__7410
*1060 g21487__6417
*1061 g21612__5477
*1062 SEL_reg\[7\]
*1063 g21615__2398
*1064 g21490__5107
*1065 g21492__6260
*1066 g21421__4319
*1067 g21424__8428
*1068 g21343__5526
*1069 g21569__6783
*1070 g21499__3680
*1071 g21500__1617
*1072 g21427__2802
*1073 g21502__1705
*1074 g21640
*1075 g21665__5122
*1076 g21428__8246
*1077 g21503__7098
*1078 g21673__6131
*1079 g21345__1881
*1080 g21675__5115
*1081 g21510__7482
*1082 g21512__4733
*1083 g21433__6161
*1084 g21514__9315
*1085 g21435__9945
*1086 g21708__2883
*1087 g21519__2346
*1088 TX_reg\[24\]
*1089 SEL_reg\[15\]
*1090 g21524__1666
*1091 SEL_reg\[23\]
*1092 TX_reg\[20\]
*1093 TX_reg\[52\]
*1094 RST_reg\[5\]
*1095 TX_reg\[56\]
*1096 RST_reg\[13\]
*1097 RST_reg\[45\]
*1098 TX_reg\[32\]
*1099 SEL_reg\[27\]
*1100 RST_reg\[47\]
*1101 RST_reg\[19\]
*1102 RST_reg\[3\]
*1103 TX_reg\[0\]
*1104 g21531__7410
*1105 RST_reg\[7\]
*1106 SEL_reg\[58\]
*1107 line_done_reg
*1108 RST_reg\[10\]
*1109 g21719__6417
*1110 SEL_reg\[47\]
*1111 SEL_reg\[53\]
*1112 SEL_reg\[21\]
*1113 SEL_reg\[13\]
*1114 TX_reg\[31\]
*1115 SEL_reg\[35\]
*1116 SEL_reg\[51\]
*1117 SEL_reg\[11\]
*1118 SEL_reg\[5\]
*1119 SEL_reg\[17\]
*1120 TX_reg\[53\]
*1121 TX_reg\[1\]
*1122 g21474__5477
*1123 TX_reg\[57\]
*1124 TX_reg\[33\]
*1125 g21444__2398
*1126 g21445__5107
*1127 g21544__6260
*1128 line_cnt_reg\[2\]
*1129 TX_reg\[27\]
*1130 g21478__4319
*1131 g21479__8428
*1132 g21597__5526
*1133 TX_reg\[35\]
*1134 g21600__6783
*1135 g21601__3680
*1136 g21484__1617
*1137 g21489__2802
*1138 RST_reg\[32\]
*1139 RST_reg\[36\]
*1140 g21622__1705
*1141 g21623__5122
*1142 g21495__8246
*1143 g21496__7098
*1144 g21529__6131
*1145 g21344__1881
*1146 RST_reg\[56\]
*1147 g21674__5115
*1148 g21507__7482
*1149 g21681__4733
*1150 g21431__6161
*1151 RST_reg\[23\]
*1152 g21513__9315
*1153 RST_reg\[41\]
*1154 g21694__9945
*1155 g21697__2883
*1156 g21516__2346
*1157 g21703__1666
*1158 g21348__7410
*1159 g21518__6417
*1160 g21436__5477
*1161 g21710__2398
*1162 g21711__5107
*1163 g21521__6260
*1164 g21522__4319
*1165 g21717__8428
*1166 g21526__5526
*1167 g21527__6783
*1168 g21727__3680
*1169 g21528__1617
*1170 RST_reg\[1\]
*1171 SEL_reg\[9\]
*1172 RST_reg\[46\]
*1173 RST_reg\[54\]
*1174 RST_reg\[55\]
*1175 RST_reg\[40\]
*1176 g21637__2802
*1177 RST_reg\[57\]
*1178 TX_reg\[14\]
*1179 RST_reg\[11\]
*1180 g21530__1705
*1181 RST_reg\[51\]
*1182 RST_reg\[43\]
*1183 RST_reg\[35\]
*1184 RST_reg\[39\]
*1185 TX_reg\[22\]
*1186 g21733__5122
*1187 TX_reg\[54\]
*1188 RST_reg\[4\]
*1189 TX_reg\[15\]
*1190 RST_reg\[24\]
*1191 RST_reg\[16\]
*1192 RST_reg\[17\]
*1193 RST_reg\[49\]
*1194 RST_reg\[25\]
*1195 RST_reg\[0\]
*1196 RST_reg\[59\]
*1197 TX_reg\[3\]
*1198 TX_reg\[25\]
*1199 TX_reg\[41\]
*1200 TX_reg\[5\]
*1201 TX_reg\[59\]
*1202 TX_reg\[51\]
*1203 TX_reg\[23\]
*1204 TX_reg\[19\]
*1205 TX_reg\[39\]
*1206 TX_reg\[17\]
*1207 RST_reg\[33\]
*1208 TX_reg\[49\]
*1209 TX_reg\[37\]
*1210 TX_reg\[13\]
*1211 TX_reg\[47\]
*1212 TX_reg\[7\]
*1213 RST_reg\[9\]
*1214 SEL_reg\[41\]
*1215 SEL_reg\[31\]
*1216 RST_reg\[31\]
*1217 g21536__8246
*1218 g21748__7098
*1219 TX_reg\[46\]
*1220 SEL_reg\[59\]
*1221 g21446__6131
*1222 g21768__1881
*1223 g21542__5115
*1224 g21543__7482
*1225 line_cnt_reg\[1\]
*1226 g21796__4733
*1227 g21589__6161
*1228 g21477__9315
*1229 SEL_reg\[55\]
*1230 g21598__9945
*1231 g21599__2883
*1232 g21822__2346
*1233 g21602__1666
*1234 g21603__7410
*1235 g21485__6417
*1236 g21607__5477
*1237 g21609__5107
*1238 g21616__6260
*1239 RST_reg\[8\]
*1240 g21425__4319
*1241 g21497__8428
*1242 g21631__5526
*1243 g21632__6783
*1244 g21498__3680
*1245 g21633__1617
*1246 g21634__2802
*1247 g21635__1705
*1248 g21678__5122
*1249 g21639
*1250 g21666__8246
*1251 g21670__7098
*1252 g21671__6131
*1253 g21672__1881
*1254 g21506__5115
*1255 g21638__7482
*1256 g21706__4733
*1257 g21679__6161
*1258 g21508__9315
*1259 g21682__9945
*1260 g21685__2883
*1261 g21686__2346
*1262 g21687__1666
*1263 g21691__7410
*1264 RST_reg\[27\]
*1265 g21696__6417
*1266 g21515__5477
*1267 g21698__2398
*1268 g21701__5107
*1269 g21702__6260
*1270 RST_reg\[48\]
*1271 g21517__4319
*1272 TX_reg\[9\]
*1273 g21532__8428
*1274 g21713__5526
*1275 g21714__6783
*1276 g21716__3680
*1277 g21723__1617
*1278 g21734__2802
*1279 g21441__1705
*1280 g21443__5122
*1281 g21772__8246
*1282 g21540__7098
*1283 g21767__6131
*1284 g21472__1881
*1285 g21541__5115
*1286 g21771__7482
*1287 line_cnt_reg\[0\]
*1288 g21820__4733
*1289 g21630__6161
*1290 g21475__9315
*1291 g21790
*1292 g21588__9945
*1293 g21795__2883
*1294 g21476__2346
*1295 g21798__1666
*1296 g21799__7410
*1297 g21802__6417
*1298 g21804__5477
*1299 g21805__2398
*1300 g21592__5107
*1301 g21806__6260
*1302 g21807__4319
*1303 g21808__8428
*1304 g21809__5526
*1305 g21811__6783
*1306 g21812__3680
*1307 g21814__1617
*1308 g21816__2802
*1309 g21817__1705
*1310 g21818__5122
*1311 g21545
*1312 g21604__8246
*1313 g21917__7098
*1314 g21629__6131
*1315 g21856__1881
*1316 g21860__5115
*1317 g21613__7482
*1318 g21614__4733
*1319 g21625__6161
*1320 g21617__9315
*1321 g21887
*1322 g21618__9945
*1323 g21619__2883
*1324 g21893__2346
*1325 g21620__1666
*1326 g21621__7410
*1327 g21905__6417
*1328 g21624__5477
*1329 g21909__2398
*1330 g21841
*1331 g21784__5107
*1332 g21876__6260
*1333 g21848
*1334 g21728__4319
*1335 g21664__8428
*1336 g21667__5526
*1337 g21668__6783
*1338 g21669__3680
*1339 g21504__1617
*1340 g21505__2802
*1341 g21680__1705
*1342 g21509__5122
*1343 g21511__8246
*1344 g21692__7098
*1345 g21695__6131
*1346 g21704__1881
*1347 g21705__5115
*1348 g21709__7482
*1349 g21712__4733
*1350 g21437__6161
*1351 g21715__9315
*1352 g21523__9945
*1353 g21721__2883
*1354 g21525__2346
*1355 g21724__1666
*1356 g21440__7410
*1357 g21501__6417
*1358 g21743__5477
*1359 g21737__2398
*1360 g21731__5107
*1361 g21735__6260
*1362 g21533__4319
*1363 g21534__8428
*1364 g21775__5526
*1365 g21535__6783
*1366 g21747__3680
*1367 g21537__1617
*1368 g21756__2802
*1369 g21757__1705
*1370 g21736__5122
*1371 g21538__8246
*1372 g21762__7098
*1373 g21539__6131
*1374 g21764__1881
*1375 g21769__5115
*1376 g21473__7482
*1377 g21773__4733
*1378 g21774__6161
*1379 g21745__9315
*1380 g21739__9945
*1381 g21896__2883
*1382 g21791
*1383 g21800__2346
*1384 g21810__1666
*1385 g21596__7410
*1386 g21813__6417
*1387 g21819__5477
*1388 g21740__2398
*1389 g21586__5107
*1390 g21605__6260
*1391 g21853__4319
*1392 g21859__8428
*1393 g21861__5526
*1394 g21894__6783
*1395 g21892__3680
*1396 g21889__1617
*1397 g21890__2802
*1398 g21782__1705
*1399 g21829__5122
*1400 g21831__8246
*1401 g21794
*1402 g21833__7098
*1403 g21590__6131
*1404 g21875__1881
*1405 g21883__5115
*1406 g21787__7482
*1407 g21897__4733
*1408 g21904__6161
*1409 g21911__9315
*1410 g21912__9945
*1411 g21918__2883
*1412 g21919__2346
*1413 g21920__1666
*1414 g21923__7410
*1415 g21924__6417
*1416 g21676__5477
*1417 g21684__2398
*1418 g21700__5107
*1419 g21718__6260
*1420 g21720__4319
*1421 g21722__8428
*1422 g21725__5526
*1423 g21729__6783
*1424 g21741__3680
*1425 g21742__1617
*1426 g21754__2802
*1427 g21758__1705
*1428 g21765__5122
*1429 g21766__8246
*1430 g21770__7098
*1431 g21738__6131
*1432 g21781__1881
*1433 g21777__5115
*1434 g21915__7482
*1435 g21914__4733
*1436 g21793
*1437 g21797__6161
*1438 g21803__9315
*1439 g21821__9945
*1440 g21913__2883
*1441 g21908__2346
*1442 g21907__1666
*1443 g21906__7410
*1444 g21903__6417
*1445 g21901__5477
*1446 g21852__2398
*1447 g21854__5107
*1448 g21610__6260
*1449 g21858__4319
*1450 g21900__8428
*1451 g21899__5526
*1452 g21849
*1453 g21832__6783
*1454 g21830__3680
*1455 g21827__1617
*1456 g21824__2802
*1457 g21871__1705
*1458 g21838__5122
*1459 g21785__8246
*1460 g21786__7098
*1461 g21884__6131
*1462 g21916__1881
*1463 g21921__5115
*1464 g21922__7482
*1465 g21688__4733
*1466 g21689__6161
*1467 g21690__9315
*1468 g21707__9945
*1469 g21726__2883
*1470 g21730__2346
*1471 g21749__1666
*1472 g21753__7410
*1473 g21755__6417
*1474 g21759__5477
*1475 g21761__2398
*1476 g21628__5107
*1477 g21744__6260
*1478 g21780__4319
*1479 g21953__8428
*1480 g21969__5526
*1481 g21627__6783
*1482 g21823__3680
*1483 g21626__1617
*1484 g21910__2802
*1485 g21855__1705
*1486 g21611__5122
*1487 g21857__8246
*1488 g21815__7098
*1489 g21902__6131
*1490 g21891__1881
*1491 g21826__5115
*1492 g21828__7482
*1493 g21865__4733
*1494 g21842
*1495 g21866__6161
*1496 g21846
*1497 g21825__9315
*1498 g21843
*1499 g21869__9945
*1500 g21870__2883
*1501 g21850
*1502 g21837__2346
*1503 g21874__1666
*1504 g21885__7410
*1505 g21948__6417
*1506 g21763__5477
*1507 g21949__2398
*1508 g21950__5107
*1509 g21960__6260
*1510 g21963__4319
*1511 g21951__8428
*1512 g21750__5526
*1513 g21975
*1514 g21732__6783
*1515 g21699__3680
*1516 g21683__1617
*1517 g21898__2802
*1518 g21967__1705
*1519 g21867__5122
*1520 g22010
*1521 g21641
*1522 g21977
*1523 g21988__8246
*1524 g21839
*1525 g22008
*1526 g22009
*1527 g21792
*1528 g21962__7098
*1529 g21964__6131
*1530 g21965__1881
*1531 g21974
*1532 g21973
*1533 g21968__5115
*1534 g21783__7482
*1535 g21990__4733
*1536 g21844
*1537 g21966__6161
*1538 g21878__9315
*1539 g21954__9945
*1540 g21881__2883
*1541 g21847
*1542 tdi_en_s_reg
*1543 g21776__2346
*1544 g21752__1666
*1545 g21751__7410
*1546 g21895__6417
*1547 g22017__5477
*1548 g21991__2398
*1549 g21693__5107
*1550 g21993__6260
*1551 g22023__4319
*1552 g21877__8428
*1553 g22024__5526
*1554 g22030__6783
*1555 g21886__3680
*1556 g21998__1617
*1557 g21996__2802
*1558 g21980
*1559 g21981
*1560 g21982
*1561 g21978
*1562 g22004__1705
*1563 g21801__5122
*1564 g21851__8246
*1565 g21840
*1566 g21845
*1567 g21778__7098
*1568 g21989__6131
*1569 g21864__1881
*1570 g21862__5115
*1571 g22006
*1572 g21872__7482
*1573 g21834__4733
*1574 g21836__6161
*1575 g21835__9315
*1576 g21879__9945
*1577 g21999__2883
*1578 g22029__2346
*1579 g21997__1666
*1580 g21927
*1581 g22001__7410
*1582 g21986__6417
*1583 g21972
*1584 g22005
*1585 g22015__5477
*1586 g22016__2398
*1587 g21779__5107
*1588 g21995__6260
*1589 g21882__4319
*1590 g21868__8428
*1591 g21970__5526
*1592 g21994__6783
*1593 g21971__3680
*1594 g22028__1617
*1595 g22068
*1596 g22003__2802
*1597 g22002__1705
*1598 g21928
*1599 g22000__5122
*1600 g22042
*1601 g21987__8246
*1602 en_meta_reg
*1603 g21873__7098
*1604 g22019__6131
*1605 g21863__1881
*1606 g22022__5115
*1607 g22018__7482
*1608 g22021__4733
*1609 g22007
*1610 g21992__6161
*1611 g21880__9315
*1612 g22040
*1613 g22038
*1614 g21957__9945
*1615 g22085__2883
*1616 g21956__2346
*1617 g22061
*1618 g21961__1666
*1619 g22064
*1620 g22065
*1621 g22062
*1622 g22043
*1623 g21952__7410
*1624 g22025__6417
*1625 g22066
*1626 g22039
*1627 g22069
*1628 g22067
*1629 g22036
*1630 g22057__2398
*1631 g22050__5107
*1632 g22070
*1633 g22063
*1634 g22020__6260
*1635 g22047__4319
*1636 g22046__8428
*1637 g22011
*1638 g22045__5526
*1639 g22074__6783
*1640 g22082__3680
*1641 g22075__1617
*1642 g22081__2802
*1643 g22084__1705
*1644 g21926
*1645 g22037
*1646 g22013
*1647 g22086__5122
*1648 g22034__8246
*1649 g22058__7098
*1650 g22072__6131
*1651 g22071__1881
*1652 g22073__5115
*1653 g22076__7482
*1654 g22027__4733
*1655 g22078__6161
*1656 g22026__9315
*1657 g22080__9945
*1658 g22051__2883
*1659 g21925__2346
*1660 g22053__1666
*1661 g22087__7410
*1662 g22054__6417
*1663 g22055__5477
*1664 g22059__2398
*1665 g21984__5107
*1666 g22104
*1667 g22103
*1668 g22048__6260
*1669 g22105
*1670 g22077__4319
*1671 g22079__8428
*1672 g22052__5526
*1673 g21955__6783
*1674 g22033__3680
*1675 g22032__1617
*1676 g22089
*1677 g22107
*1678 g22083__2802
*1679 g22110
*1680 g22031__1705
*1681 g22108
*1682 g22056__5122
*1683 g21958__8246
*1684 rst_n_s_reg
*1685 g22090
*1686 g22088
*1687 g22116__7098
*1688 g22118__6131
*1689 g22117__1881
*1690 g22091
*1691 g22092
*1692 g22119__5115
*1693 g22099__7482
*1694 g22112__4733
*1695 g22114__6161
*1696 g22113__9315
*1697 g22115__9945
*1698 g22109
*1699 g22121__2883
*1700 g22111
*1701 g22095__2346
*1702 g22096__1666
*1703 g22100__7410
*1704 g22122__6417
*1705 g22120__5477
*1706 rst_meta_reg
*1707 g22094__2398
*1708 g22097__5107
*1709 g22098__6260
*1710 g22102__4319
*1711 g22101__8428
*1712 g22132
*1713 g22128
*1714 g22133
*1715 g22129
*1716 g22134
*1717 g22130
*1718 g22123
*1719 g22124
*1720 g22131
*1721 g22126
*1722 g22125
*1723 g22127
*1724 g2
*1725 g22428


*PORTS

*25 I *C 0 0.56
*26 I *C 0 68.88
*27 I *C 0 137.2
*28 O *C 0 0
*29 O *C 0 0
*30 O *C 0 0
*31 O *C 0 0
*32 O *C 0 0
*33 O *C 0 0
*34 O *C 0 0
*35 O *C 0 0
*36 O *C 0 0
*37 O *C 0 0
*38 O *C 0 0
*39 O *C 0 0
*40 O *C 0 0
*41 O *C 0 0
*42 O *C 0 0
*43 O *C 0 0
*44 O *C 0 0
*45 O *C 0 0
*46 O *C 0 0
*47 O *C 0 0
*48 O *C 0 0
*49 O *C 0 0
*50 O *C 0 0
*51 O *C 0 0
*52 O *C 0 0
*53 O *C 0 0
*54 O *C 0 0
*55 O *C 0 0
*56 O *C 0 0
*57 O *C 0 0
*58 O *C 0 0
*59 O *C 0 0
*60 O *C 0 0
*61 O *C 0 0
*62 O *C 0 0
*63 O *C 0 0
*64 O *C 0 0
*65 O *C 0 0
*66 O *C 0 0
*67 O *C 0 0
*68 O *C 0 0
*69 O *C 0 0
*70 O *C 0 0
*71 O *C 0 0
*72 O *C 0 0
*73 O *C 0 0
*74 O *C 0 0
*75 O *C 0 0
*76 O *C 0 0
*77 O *C 0 0
*78 O *C 0 0
*79 O *C 0 0
*80 O *C 0 0
*81 O *C 0 0
*82 O *C 0 0
*83 O *C 0 0
*84 O *C 0 0
*85 O *C 0 0
*86 O *C 0 0
*87 O *C 0 0
*88 O *C 0 0
*89 O *C 0 0
*90 O *C 0 0
*91 O *C 0 0
*92 O *C 0 0
*93 O *C 0 0
*94 O *C 0 0
*95 O *C 0 0
*96 O *C 0 0
*97 O *C 0 0
*98 O *C 0 0
*99 O *C 0 0
*100 O *C 0 0
*101 O *C 0 0
*102 O *C 0 0
*103 O *C 0 0
*104 O *C 0 0
*105 O *C 0 0
*106 O *C 0 0
*107 O *C 0 0
*108 O *C 0 0
*109 O *C 0 0
*110 O *C 0 0
*111 O *C 0 0
*112 O *C 0 0
*113 O *C 0 0
*114 O *C 0 0
*115 O *C 0 0
*116 O *C 0 0
*117 O *C 0 0
*118 O *C 0 0
*119 O *C 0 0
*120 O *C 0 0
*121 O *C 0 0
*122 O *C 0 0
*123 O *C 0 0
*124 O *C 0 0
*125 O *C 0 0
*126 O *C 0 0
*127 O *C 0 0
*128 O *C 0 0
*129 O *C 0 0
*130 O *C 0 0
*131 O *C 0 0
*132 O *C 0 0
*133 O *C 0 0
*134 O *C 0 0
*135 O *C 0 0
*136 O *C 0 0
*137 O *C 0 0
*138 O *C 0 0
*139 O *C 0 0
*140 O *C 0 0
*141 O *C 0 0
*142 O *C 0 0
*143 O *C 0 0
*144 O *C 0 0
*145 O *C 0 0
*146 O *C 0 0
*147 O *C 0 0
*148 O *C 0 0
*149 O *C 0 0
*150 O *C 0 0
*151 O *C 0 0
*152 O *C 0 0
*153 O *C 0 0
*154 O *C 0 0
*155 O *C 0 0
*156 O *C 0 0
*157 O *C 0 0
*158 O *C 0 0
*159 O *C 0 0
*160 O *C 0 0
*161 O *C 0 0
*162 O *C 0 0
*163 O *C 0 0
*164 O *C 0 0
*165 O *C 0 0
*166 O *C 0 0
*167 O *C 0 0
*168 O *C 0 0
*169 O *C 0 0
*170 O *C 0 0
*171 O *C 0 0
*172 O *C 0 0
*173 O *C 0 0
*174 O *C 0 0
*175 O *C 0 0
*176 O *C 0 0
*177 O *C 0 0
*178 O *C 0 0
*179 O *C 0 0
*180 O *C 0 0
*181 O *C 0 0
*182 O *C 0 0
*183 O *C 0 0
*184 O *C 0 0
*185 O *C 0 0
*186 O *C 0 0
*187 O *C 0 0
*188 O *C 0 0
*189 O *C 0 0
*190 O *C 0 0
*191 O *C 0 0
*192 O *C 0 0
*193 O *C 0 0
*194 O *C 0 0
*195 O *C 0 0
*196 O *C 0 0
*197 O *C 0 0
*198 O *C 0 0
*199 O *C 0 0
*200 O *C 0 0
*201 O *C 0 0
*202 O *C 0 0
*203 O *C 0 0
*204 O *C 0 0
*205 O *C 0 0
*206 O *C 0 0
*207 O *C 0 0
*208 O *C 289.52 137.2
*209 O *C 289.52 0.56


*D_NET *1 0.05804

*CONN
*I *1197:CDN I *C 147 24.64 *L 0.0086 *D dfcrq1
*I *970:CDN I *C 155.96 17.92 *L 0.0086 *D dfcrq1
*I *987:CDN I *C 144.2 17.92 *L 0.0086 *D dfcrq1
*I *1199:CDN I *C 150.92 29.12 *L 0.0086 *D dfcrq1
*I *1203:CDN I *C 162.68 24.64 *L 0.0086 *D dfcrq1
*I *1042:CDN I *C 145.32 35.84 *L 0.0086 *D dfcrq1
*I *948:CDN I *C 156.52 13.44 *L 0.0086 *D dfcrq1
*I *1043:CDN I *C 168.28 13.44 *L 0.0086 *D dfcrq1
*I *983:CDN I *C 167.72 17.92 *L 0.0086 *D dfcrq1
*I *1119:CDN I *C 173.88 29.12 *L 0.0086 *D dfcrq1
*I *929:CDN I *C 174.44 24.64 *L 0.0086 *D dfcrq1
*I *1108:CDN I *C 178.36 17.92 *L 0.0086 *D dfcrq1
*I *928:CDN I *C 187.88 29.12 *L 0.0086 *D dfcrq1
*I *1091:CDN I *C 187.32 24.64 *L 0.0086 *D dfcrq1
*I *965:CDN I *C 200.76 24.64 *L 0.0086 *D dfcrq1
*I *1111:CDN I *C 180.04 13.44 *L 0.0086 *D dfcrq1
*I *932:CDN I *C 202.44 29.12 *L 0.0086 *D dfcrq1
*I *944:CDN I *C 191.8 13.44 *L 0.0086 *D dfcrq1
*I *981:CDN I *C 203.56 13.44 *L 0.0086 *D dfcrq1
*I *1112:CDN I *C 199.64 35.84 *L 0.0086 *D dfcrq1
*I *1100:CDN I *C 206.92 17.92 *L 0.0086 *D dfcrq1