* File: pc3b02.dist.sp.pex
* Created: Sun Jul  4 12:09:55 2010
* Program "Calibre xRC"
* Version "v2008.4_19.14"
* Nominal Temperature: 27C
* Circuit Temperature: 27C
* 
.subckt PM_PC3B02%PAD 21 50 79 108 137 166 218 242 266 290 320 326 389 428 452
+ 459
c0 467 0 28.598f
c1 460 0 83.4871f
c2 459 0 64.3341f
c3 456 0 159.215f
c4 451 0 1.02644f
c5 444 0 9.95853f
c6 434 0 13.0869f
c7 425 0 0.117887f
c8 423 0 213.737f
c9 408 0 15.3329f
c10 397 0 46.9231f
c11 392 0 65.4578f
c12 390 0 15.889f
c13 389 0 1.04909f
c14 388 0 3.88478f
c15 326 0 13.4441f
c16 320 0 13.4329f
c17 290 0 13.4316f
c18 266 0 13.4412f
c19 242 0 13.7144f
c20 218 0 13.4278f
c21 176 0 7.52869f
c22 166 0 2.98552f
c23 149 0 6.78371f
c24 137 0 2.98621f
c25 120 0 6.78371f
c26 108 0 2.98555f
c27 91 0 6.78371f
c28 79 0 2.98471f
c29 62 0 6.78371f
c30 50 0 2.98471f
c31 33 0 6.78371f
c32 21 0 2.98457f
c33 4 0 6.78371f
r34 467 468 0.118407 
r35 466 467 0.118407 
r36 465 466 0.056883 
r37 464 465 0.061524 
r38 463 464 0.118407 
r39 462 463 0.0830354 
r40 461 462 0.0353716 
r41 459 460 0.0124825 
r42 457 459 0.000593149 
r43 456 457 0.0669731 
r44 451 452 0.00916 
r45 444 462 0.0545455 
r46 434 465 0.015 
r47 425 428 0.00916 
r48 425 451 2 
r49 423 434 0.0264274 
r50 421 423 0.147454 
r51 421 422 0.0288462 
r52 415 416 0.00752787 
r53 414 415 0.021023 
r54 412 414 0.000537705 
r55 412 456 0.00162999 
r56 410 412 0.000537705 
r57 408 410 0.0285508 
r58 399 451 0.1388 
r59 398 399 0.132996 
r60 397 398 0.0171733 
r61 394 395 0.0171733 
r62 393 394 0.0171733 
r63 392 393 0.0171733 
r64 391 397 0.0142401 
r65 391 395 0.00293318 
r66 390 422 0.00646891 
r67 390 392 0.00818451 
r68 388 444 0.202116 
r69 388 389 0.0147368 
r70 315 320 0.0072093 
r71 392 315 0.0566038 
r72 313 326 0.0072093 
r73 398 313 0.0566038 
r74 286 290 0.0072093 
r75 397 286 0.0566038 
r76 262 266 0.0072093 
r77 395 262 0.0566038 
r78 238 242 0.0072093 
r79 394 238 0.0566038 
r80 214 218 0.0072093 
r81 393 214 0.0566038 
r82 194 197 0.0022831 
r83 416 194 0.0375475 
r84 194 457 0.00547945 
r85 414 193 0.00210084 
r86 191 193 0.000537705 
r87 410 191 0.00210084 
r88 193 182 0.0105115 
r89 415 182 0.00712251 
r90 178 197 0.0187738 
r91 182 178 0.00376393 
r92 416 178 0.00712251 
r93 176 191 0.0142754 
r94 408 176 0.00356125 
r95 460 173 0.345778 
r96 172 468 0.0220132 
r97 172 173 0.319822 
r98 166 153 0.00249413 
r99 173 153 0.0425532 
r100 149 166 0.00249413 
r101 173 149 0.0425532 
r102 460 144 0.345778 
r103 143 467 0.0220132 
r104 143 144 0.319822 
r105 137 124 0.00249413 
r106 144 124 0.0425532 
r107 120 137 0.00249413 
r108 144 120 0.0425532 
r109 460 115 0.345778 
r110 114 466 0.0220132 
r111 114 115 0.319822 
r112 108 95 0.00249413 
r113 115 95 0.0425532 
r114 91 108 0.00249413 
r115 115 91 0.0425532 
r116 460 86 0.345778 
r117 85 464 0.0220132 
r118 85 86 0.319822 
r119 79 66 0.00249413 
r120 86 66 0.0425532 
r121 62 79 0.00249413 
r122 86 62 0.0425532 
r123 460 57 0.345778 
r124 56 463 0.0220132 
r125 56 57 0.319822 
r126 50 37 0.00249413 
r127 57 37 0.0425532 
r128 33 50 0.00249413 
r129 57 33 0.0425532 
r130 460 28 0.345778 
r131 27 461 0.0220132 
r132 27 28 0.319822 
r133 21 8 0.00249413 
r134 28 8 0.0425532 
r135 4 21 0.00249413 
r136 28 4 0.0425532 
.ends

.subckt PM_PC3B02%noxref_2 8 18
c0 20 0 4.82409f
c1 18 0 0.993329f
c2 8 0 6.70938f
r3 18 20 0.158105 
r4 20 8 0.158526 
.ends

.subckt PM_PC3B02%net_m32_VSSO_res 25 97 101 105 109 113
c0 113 0 0.519409f
c1 109 0 0.519409f
c2 105 0 0.519409f
c3 101 0 0.733303f
c4 97 0 0.73297f
c5 93 0 0.864037f
c6 87 0 0.0518462f
c7 53 0 0.0631005f
c8 43 0 0.242979f
c9 42 0 0.19588f
c10 41 0 0.135544f
c11 40 0 0.102874f
c12 39 0 0.162435f
c13 25 0 0.371125f
c14 24 0 0.190505f
c15 23 0 0.0477785f
c16 22 0 0.371634f
r17 88 93 0.0552941 
r18 87 88 0.02 
r19 86 87 0.124706 
r20 54 97 85 
r21 52 113 85 
r22 52 53 0.93595 
r23 51 109 85 
r24 50 51 1.5553 
r25 49 93 2.20253 
r26 48 50 6.2212 
r27 48 49 1.5553 
r28 47 105 85 
r29 46 48 10.0922 
r30 46 47 1.5553 
r31 45 101 85 
r32 44 53 2.23066 
r33 43 54 3.37824 
r34 43 44 10.8571 
r35 42 50 4.70046 
r36 41 53 2.23066 
r37 41 42 9 
r38 40 45 3.37824 
r39 39 46 2.90323 
r40 39 40 10.8571 
r41 24 25 0.18 
r42 86 23 0.0446983 
r43 22 24 0.0446983 
r44 22 23 0.521176 
.ends

.subckt PM_PC3B02%U27_padr 40 46 54 116 118 121 160
c0 224 0 16.2041f
c1 218 0 9.32043f
c2 214 0 15.9404f
c3 197 0 0.145078f
c4 196 0 0.0372956f
c5 195 0 0.0478417f
c6 194 0 0.0873247f
c7 191 0 6.60978f
c8 188 0 0.611623f
c9 186 0 5.6389f
c10 184 0 0.516633f
c11 182 0 0.0693973f
c12 181 0 0.207306f
c13 180 0 0.411447f
c14 174 0 1.77083f
c15 165 0 2.13885f
c16 161 0 0.438883f
c17 160 0 1.07645f
c18 159 0 0.703354f
c19 140 0 0.396349f
c20 136 0 0.0843457f
c21 121 0 1.0951f
c22 118 0 0.567194f
c23 116 0 1.01681f
c24 109 0 0.093022f
c25 88 0 16.1205f
c26 83 0 0.383767f
c27 82 0 0.369241f
c28 80 0 0.412308f
c29 76 0 0.429049f
c30 70 0 0.225976f
c31 69 0 0.0193515f
c32 68 0 0.0746783f
c33 66 0 0.0505886f
c34 65 0 0.0689129f
c35 64 0 0.0827084f
c36 60 0 0.301316f
c37 58 0 0.0369514f
c38 57 0 0.101261f
c39 54 0 1.28706f
c40 51 0 0.0694637f
c41 50 0 0.370477f
c42 46 0 2.19527f
c43 44 0 0.44573f
c44 40 0 2.29777f
r45 224 216 0.172857 
r46 214 216 6 
r47 213 214 11.3227 
r48 197 199 3 
r49 196 197 0.109474 
r50 196 194 0.0456991 
r51 194 195 0.147143 
r52 191 224 2 
r53 189 195 0.0446983 
r54 189 191 10.3129 
r55 188 199 0.30381 
r56 218 186 0.185079 
r57 184 186 1.2 
r58 183 184 0.482857 
r59 181 183 0.0446983 
r60 181 182 0.125714 
r61 180 182 0.0446983 
r62 179 188 0.0446983 
r63 179 180 0.407619 
r64 174 176 2.8475 
r65 159 218 0.18836 
r66 159 160 0.0147368 
r67 125 127 3.42533 
r68 140 109 0.77 
r69 108 121 168.333 
r70 108 109 3.92502 
r71 103 118 51.6667 
r72 102 103 1.66667 
r73 95 116 168.333 
r74 136 95 3.6393 
r75 174 90 6 
r76 127 88 0.434667 
r77 176 88 6 
r78 176 85 0.8025 
r79 85 140 6 
r80 83 172 1.2525 
r81 83 213 6 
r82 82 136 0.7825 
r83 172 82 6 
r84 165 80 6 
r85 77 168 0.8 
r86 165 77 2.88 
r87 77 127 6 
r88 168 76 6 
r89 74 213 3.65467 
r90 161 74 6 
r91 161 71 0.482667 
r92 71 125 6 
r93 70 90 0.05 
r94 66 76 0.642857 
r95 65 80 0.642857 
r96 64 70 0.0446983 
r97 63 69 0.0338756 
r98 63 64 0.1875 
r99 60 102 1.16667 
r100 59 69 0.0338756 
r101 59 60 0.245 
r102 57 69 0.00880368 
r103 57 58 0.25 
r104 53 58 0.0446983 
r105 53 54 1.2575 
r106 52 54 1.3775 
r107 50 52 0.0447588 
r108 50 51 0.544 
r109 68 46 2.375 
r110 44 68 0.12 
r111 43 66 0.0449572 
r112 43 44 0.8475 
r113 39 65 0.0449572 
r114 39 40 1.4975 
r115 38 51 0.0447588 
r116 38 40 1.3775 
.ends

.subckt PM_PC3B02%VSS 587 766 804 826 851 856 868 871 877
c0 877 0 91.3908f
c1 868 0 55.1861f
c2 854 0 2.37405f
c3 851 0 0.00368951f
c4 848 0 1.24098f
c5 835 0 1.23861f
c6 823 0 1.88726f
c7 815 0 15.3636f
c8 801 0 1.4553f
c9 786 0 25.2961f
c10 784 0 0.0842555f
c11 783 0 0.0657505f
c12 782 0 7.75909f
c13 781 0 0.729043f
c14 780 0 0.269279f
c15 778 0 0.849329f
c16 777 0 0.0372194f
c17 770 0 0.198007f
c18 766 0 4.21653f
c19 765 0 10.33f
c20 758 0 8.74401f
c21 755 0 0.253576f
c22 753 0 1.98808f
c23 637 0 2.4835f
c24 629 0 2.25025f
c25 620 0 1.88763f
c26 618 0 0.228409f
c27 616 0 0.276497f
c28 613 0 26.5825f
c29 607 0 0.816164f
c30 606 0 6.34069f
c31 603 0 0.100669f
c32 600 0 2.03915f
c33 594 0 0.137389f
c34 593 0 2.48969f
c35 592 0 0.154374f
c36 591 0 2.26426f
c37 587 0 0.00279637f
c38 539 0 0.162892f
c39 537 0 0.721903f
c40 535 0 0.203897f
c41 510 0 2.94262f
c42 496 0 3.0577f
c43 494 0 0.031054f
c44 490 0 7.73887f
c45 489 0 0.203811f
c46 474 0 5.70482f
c47 471 0 3.25515f
r48 875 877 0.000702051 
r49 874 875 0.0832563 
r50 871 874 0.000703354 
r51 867 868 0.00318245 
r52 864 865 0.0344168 
r53 863 864 0.167059 
r54 862 863 0.096989 
r55 861 862 0.0315852 
r56 860 861 0.0141176 
r57 854 867 0.461538 
r58 848 851 1.28857 
r59 848 865 1.5 
r60 842 863 0.0535714 
r61 835 838 0.045 
r62 835 862 0.666667 
r63 830 867 0.00119641 
r64 865 830 0.0758524 
r65 828 830 0.428571 
r66 826 828 0.189 
r67 823 826 0.013 
r68 823 875 0.131579 
r69 819 820 0.56934 
r70 818 819 1.12447 
r71 815 818 0.628223 
r72 815 864 0.3 
r73 808 860 0.089651 
r74 856 808 0.00438684 
r75 806 808 0.428571 
r76 804 806 0.189 
r77 801 804 0.013 
r78 801 874 0.131579 
r79 782 842 2.8715 
r80 782 783 0.0338756 
r81 776 784 0.0338756 
r82 775 783 0.0338756 
r83 772 784 0.00880368 
r84 771 783 0.00880368 
r85 770 778 0.0574488 
r86 780 770 0.0632911 
r87 766 795 2.59036 
r88 772 766 0.958 
r89 771 766 0.986 
r90 765 784 0.0338756 
r91 764 777 0.0448201 
r92 761 854 1.518 
r93 760 854 0.426 
r94 758 795 1.08482 
r95 753 764 2.13041 
r96 765 631 0.733 
r97 766 631 1.93 
r98 629 788 3 
r99 626 842 1.612 
r100 777 626 1.283 
r101 626 861 1.5 
r102 624 766 1.07807 
r103 755 624 1.06072 
r104 624 637 1 
r105 788 620 0.24 
r106 819 620 1.5 
r107 631 618 3 
r108 818 618 3 
r109 616 795 3 
r110 820 616 3 
r111 613 812 1.1314 
r112 613 860 0.125 
r113 612 637 0.0075 
r114 634 612 0.056 
r115 812 612 0.24 
r116 610 781 0.102486 
r117 610 780 0.0155975 
r118 786 610 1 
r119 608 786 0.9662 
r120 608 634 0.02 
r121 607 776 0.5005 
r122 761 607 0.0446983 
r123 606 775 0.5005 
r124 760 606 0.0446983 
r125 605 629 0.830244 
r126 604 629 0.573659 
r127 603 766 3.1035 
r128 753 603 0.0448201 
r129 599 600 1.37048 
r130 594 605 0.0448242 
r131 594 595 0.678222 
r132 593 600 0.0447675 
r133 593 595 0.650667 
r134 592 604 0.0446983 
r135 591 599 0.0447067 
r136 591 592 1.45854 
r137 838 587 0.31875 
r138 538 539 0.147619 
r139 534 535 0.14988 
r140 758 534 0.0380723 
r141 531 533 0.143333 
r142 755 530 0.0385542 
r143 528 530 0.14506 
r144 766 527 0.159 
r145 510 766 0.159 
r146 509 539 0.02 
r147 509 527 1.247 
r148 508 535 0.02 
r149 508 510 1.243 
r150 766 507 0.192 
r151 505 766 0.192 
r152 504 505 0.342 
r153 766 504 0.192 
r154 502 766 0.192 
r155 501 502 0.342 
r156 766 501 0.192 
r157 499 766 0.192 
r158 498 499 0.342 
r159 766 498 0.192 
r160 496 766 0.192 
r161 495 538 0.02 
r162 495 507 1.214 
r163 494 537 0.04 
r164 494 496 0.243 
r165 492 534 0.02 
r166 492 537 0.938734 
r167 490 538 0.0380952 
r168 490 781 4.80524 
r169 489 778 0.555238 
r170 489 533 0.0380952 
r171 766 485 0.159 
r172 483 766 0.159 
r173 482 483 0.408 
r174 766 482 0.159 
r175 480 766 0.159 
r176 479 480 0.408 
r177 766 479 0.159 
r178 477 766 0.159 
r179 476 477 0.408 
r180 766 476 0.159 
r181 474 766 0.159 
r182 473 533 0.02 
r183 473 485 1.247 
r184 472 530 0.02 
r185 472 474 1.243 
r186 471 531 0.02 
r187 470 528 0.02 
r188 470 471 4.69271 
.ends

.subckt PM_PC3B02%U27_U69$7_gate 197 202 207 212 217 222 227 232 249
c0 384 0 0.256896f
c1 380 0 0.130993f
c2 378 0 0.465423f
c3 373 0 0.466085f
c4 368 0 0.465672f
c5 359 0 2.82662f
c6 343 0 0.46935f
c7 338 0 0.714411f
c8 337 0 0.674704f
c9 332 0 0.681049f
c10 327 0 0.304369f
c11 325 0 0.273588f
c12 323 0 0.0792102f
c13 322 0 0.329567f
c14 319 0 6.54958f
c15 313 0 1.21372f
c16 311 0 1.2117f
c17 310 0 0.164434f
c18 309 0 1.20805f
c19 308 0 0.16034f
c20 307 0 9.02943f
c21 306 0 0.290437f
c22 304 0 0.602284f
c23 300 0 0.136486f
c24 294 0 0.0903556f
c25 286 0 0.171215f
c26 280 0 0.680566f
c27 272 0 0.535191f
c28 264 0 0.53539f
c29 256 0 0.535266f
c30 250 0 0.300335f
c31 249 0 0.278026f
c32 241 0 0.163718f
c33 240 0 0.605873f
c34 239 0 0.169195f
c35 238 0 0.608618f
c36 237 0 0.169108f
c37 236 0 0.608415f
c38 235 0 0.169057f
c39 234 0 0.538755f
c40 232 0 3.10391f
c41 227 0 3.04886f
c42 222 0 3.04886f
c43 217 0 3.04886f
c44 212 0 3.04886f
c45 207 0 3.04886f
c46 202 0 3.04886f
c47 197 0 3.1022f
r48 345 384 0.00341463 
r49 343 345 3 
r50 340 378 0.000487805 
r51 375 340 0.055122 
r52 338 340 1.5 
r53 335 373 0.00292683 
r54 370 335 0.0526829 
r55 333 335 1.5 
r56 333 337 0.0934799 
r57 330 368 0.00536585 
r58 365 330 0.0502439 
r59 328 330 1.5 
r60 328 332 0.0954579 
r61 326 343 0.05061 
r62 326 327 0.662857 
r63 325 343 0.05061 
r64 324 325 0.202353 
r65 322 327 0.0446983 
r66 322 323 0.352857 
r67 319 380 6 
r68 317 323 0.0448488 
r69 317 319 6.78194 
r70 338 313 0.118535 
r71 313 337 1.459 
r72 333 311 0.117216 
r73 311 332 1.456 
r74 328 309 0.116337 
r75 309 310 1.453 
r76 307 324 0.0487211 
r77 307 308 10.989 
r78 361 306 0.0521951 
r79 304 306 3 
r80 303 310 0.0618904 
r81 303 304 0.0660729 
r82 302 308 0.0618904 
r83 302 304 0.137976 
r84 298 380 0.130323 
r85 297 300 0.153548 
r86 297 298 0.02 
r87 294 359 6 
r88 292 300 0.02 
r89 292 294 0.132903 
r90 291 359 3.99613 
r91 290 291 0.026898 
r92 286 290 0.10143 
r93 286 249 0.106667 
r94 241 280 1.85294 
r95 240 272 5.05882 
r96 239 272 5.05882 
r97 238 264 5.05882 
r98 237 264 5.05882 
r99 236 256 5.05882 
r100 235 256 5.05882 
r101 234 250 1.85294 
r102 229 241 3.88985 
r103 229 232 183.96 
r104 224 240 3.88985 
r105 224 227 183.96 
r106 219 239 3.88985 
r107 219 222 183.96 
r108 214 238 3.88985 
r109 214 217 183.96 
r110 209 237 3.88985 
r111 209 212 183.96 
r112 204 236 3.88985 
r113 204 207 183.96 
r114 199 235 3.88985 
r115 199 202 183.96 
r116 194 234 3.88985 
r117 194 197 183.96 
r118 280 135 0.00142683 
r119 384 135 3 
r120 272 117 0.00142683 
r121 378 117 3 
r122 264 92 0.00142683 
r123 373 92 3 
r124 272 81 0.0277856 
r125 375 81 3 
r126 256 56 0.00142683 
r127 368 56 3 
r128 264 45 0.0277856 
r129 370 45 3 
r130 250 20 0.00142683 
r131 361 20 3 
r132 256 9 0.0277856 
r133 365 9 3 
.ends

.subckt PM_PC3B02%VSSO 406 429 431 466 785 789 796 825 832 839 858 860 865 870
+ 879 885 891 897 903 912 918 927 933 939 948 954 960 969 975 987 1038 1044 1048
+ 1054
c0 1054 0 32.0154f
c1 1041 0 1.98471f
c2 1038 0 46.3974f
c3 1019 0 7.93618f
c4 1017 0 6.95946f
c5 1012 0 6.96129f
c6 1007 0 6.9641f
c7 1002 0 6.96604f
c8 997 0 6.96597f
c9 987 0 0.00391448f
c10 982 0 8.95235f
c11 975 0 0.342408f
c12 960 0 1.36597f
c13 954 0 1.40025f
c14 939 0 1.35721f
c15 933 0 1.35624f
c16 918 0 1.34294f
c17 903 0 1.36358f
c18 897 0 1.14427f
c19 891 0 0.841018f
c20 885 0 1.36424f
c21 870 0 1.79275f
c22 865 0 1.69043f
c23 863 0 0.206454f
c24 860 0 0.00103986f
c25 858 0 8.25608e-19
c26 856 0 8.96457f
c27 844 0 7.85714f
c28 838 0 1.27875f
c29 828 0 1.65707f
c30 825 0 58.2593f
c31 792 0 1.35078f
c32 789 0 10.6383f
c33 777 0 0.111625f
c34 771 0 4.78f
c35 768 0 0.112784f
c36 767 0 0.0408562f
c37 766 0 1.53004f
c38 764 0 0.0510217f
c39 763 0 0.326591f
c40 762 0 0.688559f
c41 756 0 0.581495f
c42 752 0 0.708327f
c43 750 0 0.0337465f
c44 749 0 3.25531f
c45 747 0 0.383003f
c46 746 0 0.713156f
c47 745 0 0.303464f
c48 744 0 3.27963f
c49 743 0 0.383249f
c50 742 0 1.86525f
c51 740 0 0.0503886f
c52 739 0 0.188469f
c53 738 0 0.342548f
c54 705 0 0.122915f
c55 704 0 8.92225f
c56 671 0 0.269574f
c57 667 0 7.03694f
c58 663 0 0.146306f
c59 466 0 0.431422f
c60 451 0 0.842776f
c61 449 0 0.102273f
c62 447 0 0.228551f
c63 445 0 1.40422f
c64 444 0 0.0287762f
c65 443 0 0.346848f
c66 431 0 0.780475f
c67 430 0 0.108442f
c68 429 0 0.346872f
c69 428 0 0.193042f
c70 425 0 0.0481914f
c71 424 0 0.436605f
c72 406 0 0.114597f
c73 399 0 0.120931f
c74 317 0 7.05865f
c75 284 0 14.034f
c76 234 0 14.036f
c77 184 0 14.0389f
c78 134 0 14.0406f
c79 84 0 14.0405f
c80 10 0 0.146306f
r81 1052 1054 0.00282778 
r82 1051 1052 0.355444 
r83 1048 1051 0.00283333 
r84 1043 1045 0.0216667 
r85 1043 1044 0.02 
r86 1041 1043 0.00333333 
r87 1035 1036 0.166203 
r88 1034 1035 0.0396791 
r89 1033 1034 0.043262 
r90 1032 1033 0.0347594 
r91 1031 1032 0.0198396 
r92 1030 1031 0.0819786 
r93 1029 1030 0.0253476 
r94 1028 1029 0.0227807 
r95 1027 1028 0.0490909 
r96 1026 1027 0.0226738 
r97 1025 1026 0.024385 
r98 1024 1025 0.0213904 
r99 1023 1041 0.02 
r100 1023 1024 0.0781283 
r101 991 992 0.0140639 
r102 986 987 0.0126606 
r103 1019 984 0.0113761 
r104 982 984 0.0638298 
r105 979 1036 2 
r106 975 979 0.000380952 
r107 963 1035 0.6 
r108 960 963 0.285 
r109 957 1034 0.6 
r110 954 957 0.32 
r111 942 1033 0.6 
r112 939 942 0.36 
r113 936 1032 0.6 
r114 933 936 0.37 
r115 921 1030 0.6 
r116 918 921 0.3225 
r117 906 1029 0.6 
r118 903 906 0.325 
r119 900 1028 0.6 
r120 897 900 0.3425 
r121 894 1027 0.75 
r122 891 894 0.04 
r123 888 1026 0.6 
r124 885 888 0.365 
r125 873 1025 0.6 
r126 870 873 0.3175 
r127 867 1024 0.666667 
r128 865 867 0.96 
r129 858 986 0.013211 
r130 982 858 0.000917431 
r131 856 858 0.000913242 
r132 856 991 0.0638298 
r133 844 991 0.0113242 
r134 842 844 0.0327869 
r135 841 842 0.029258 
r136 838 841 0.0131449 
r137 838 839 0.02 
r138 835 1052 0.357143 
r139 832 835 0.21 
r140 830 1038 0.00544385 
r141 1036 830 0.0345455 
r142 828 830 1 
r143 828 832 0.445 
r144 823 825 0.00612761 
r145 823 1019 0.0327869 
r146 969 821 0.130435 
r147 821 1017 0.00301741 
r148 1014 821 0.00301741 
r149 819 821 0.0266667 
r150 819 823 0.0287785 
r151 948 818 0.130435 
r152 818 1012 0.00301741 
r153 1009 818 0.00301741 
r154 816 818 0.0266667 
r155 816 819 0.0242129 
r156 927 815 0.130435 
r157 815 1007 0.00301741 
r158 1004 815 0.00301741 
r159 813 815 0.0266667 
r160 813 816 0.0242129 
r161 812 813 0.000615582 
r162 912 811 0.130435 
r163 811 1002 0.00301741 
r164 999 811 0.00301741 
r165 809 811 0.0266667 
r166 809 812 0.0235973 
r167 879 808 0.130435 
r168 808 997 0.00301741 
r169 994 808 0.00301741 
r170 806 808 0.0266667 
r171 806 809 0.0242129 
r172 805 841 0.02 
r173 805 806 0.0277012 
r174 842 802 0.446124 
r175 799 1051 0.357143 
r176 796 799 0.21 
r177 794 1047 0.144409 
r178 1045 794 0.034 
r179 792 794 1 
r180 792 796 0.445 
r181 780 863 3 
r182 777 780 0.0536842 
r183 770 777 0.02 
r184 770 771 6.35789 
r185 767 768 0.1275 
r186 766 767 0.0448391 
r187 765 766 2.75862 
r188 763 765 0.044715 
r189 763 764 0.466667 
r190 762 764 0.0450432 
r191 1047 762 1.29371 
r192 756 777 0.02 
r193 756 757 0.746316 
r194 754 987 0.230275 
r195 752 982 0.210275 
r196 750 863 0.109474 
r197 748 860 0.229041 
r198 748 749 0.0863581 
r199 746 856 0.209132 
r200 746 747 0.0863581 
r201 754 744 0.0861375 
r202 744 745 0.132033 
r203 752 743 0.0861375 
r204 750 742 0.0420103 
r205 741 742 3.01467 
r206 739 741 0.0446983 
r207 739 740 0.289333 
r208 738 740 0.0447588 
r209 705 858 0.128 
r210 704 745 0.0473573 
r211 704 858 0.126 
r212 671 705 0.0473573 
r213 749 671 0.132033 
r214 667 858 0.126 
r215 666 865 1.1475 
r216 664 858 0.128 
r217 663 664 0.0473573 
r218 663 747 0.250407 
r219 771 453 6 
r220 1031 451 0.75 
r221 768 449 3 
r222 466 447 0.0610526 
r223 757 447 2 
r224 444 451 0.437895 
r225 444 445 0.0407126 
r226 666 443 0.0338756 
r227 430 453 0.0413535 
r228 430 431 1.14783 
r229 428 429 0.221176 
r230 424 428 0.0446983 
r231 424 425 0.608235 
r232 422 425 0.0446983 
r233 422 445 2.01647 
r234 405 443 0.00880368 
r235 405 406 0.1375 
r236 399 738 0.6025 
r237 399 449 0.0265396 
r238 320 789 0.0419737 
r239 785 320 0.0413851 
r240 812 320 0.00128205 
r241 802 317 2.21804 
r242 317 1045 0.6 
r243 969 284 0.00313778 
r244 1017 284 0.0652174 
r245 984 273 0.0141284 
r246 273 986 0.0652174 
r247 948 234 0.00313778 
r248 1012 234 0.0652174 
r249 224 969 0.00313778 
r250 1014 224 0.0652174 
r251 927 184 0.00313778 
r252 1007 184 0.0652174 
r253 174 948 0.00313778 
r254 1009 174 0.0652174 
r255 912 134 0.00313778 
r256 1002 134 0.0652174 
r257 124 927 0.00313778 
r258 1004 124 0.0652174 
r259 879 84 0.00313778 
r260 997 84 0.0652174 
r261 74 912 0.00313778 
r262 999 74 0.0652174 
r263 34 860 0.0126027 
r264 858 34 0.0131507 
r265 992 34 0.0652174 
r266 24 879 0.00313778 
r267 994 24 0.0652174 
r268 10 743 0.250407 
r269 10 667 0.0473573 
.ends

.subckt PM_PC3B02%U15_ngate 70 77 84 91 99 107 143 145 193 199
c0 245 0 16.5703f
c1 237 0 0.535266f
c2 236 0 0.766784f
c3 233 0 0.0908427f
c4 232 0 7.2169f
c5 230 0 0.210495f
c6 228 0 6.45528f
c7 225 0 0.101251f
c8 211 0 2.85498f
c9 201 0 0.608035f
c10 200 0 0.168943f
c11 199 0 3.04886f
c12 193 0 3.04886f
c13 153 0 0.407767f
c14 145 0 0.597859f
c15 143 0 0.860272f
c16 140 0 0.147369f
c17 137 0 0.152359f
c18 128 0 0.134991f
c19 125 0 1.31692f
c20 124 0 0.135067f
c21 121 0 0.815641f
c22 116 0 2.98513f
c23 114 0 0.0428228f
c24 113 0 0.0461791f
c25 112 0 0.0262636f
c26 111 0 0.0261329f
c27 107 0 0.989442f
c28 104 0 0.125032f
c29 103 0 1.6468f
c30 99 0 1.28445f
c31 96 0 0.0767532f
c32 95 0 0.252995f
c33 91 0 1.35208f
c34 88 0 0.346812f
c35 84 0 1.42004f
c36 81 0 0.248734f
c37 77 0 1.459f
c38 75 0 0.050305f
c39 74 0 0.28959f
c40 70 0 1.43019f
c41 26 0 0.461773f
r42 244 245 0.397333 
r43 243 244 5.10933 
r44 240 243 2.11067 
r45 234 236 0.0697285 
r46 234 252 1.5 
r47 232 236 0.0813046 
r48 232 233 7.477 
r49 240 230 6 
r50 228 230 6 
r51 227 233 0.0449052 
r52 227 228 7.33746 
r53 223 225 0.0755556 
r54 216 223 0.02 
r55 237 208 0.00142683 
r56 205 237 0.0277856 
r57 201 237 5.05882 
r58 200 237 5.05882 
r59 195 201 3.88985 
r60 195 199 183.96 
r61 190 200 3.88985 
r62 190 193 183.96 
r63 140 145 60 
r64 140 160 3.77986 
r65 137 143 85 
r66 137 153 3.53757 
r67 128 166 0.0370021 
r68 225 128 6 
r69 125 221 2.59143 
r70 125 245 6 
r71 221 124 6 
r72 216 121 1.53143 
r73 121 244 6 
r74 153 120 0.3325 
r75 211 120 6 
r76 117 214 2.2825 
r77 211 117 1.32 
r78 117 243 6 
r79 116 160 3.7825 
r80 214 116 6 
r81 113 124 0.0613333 
r82 106 107 1.2375 
r83 105 114 0.0310989 
r84 104 106 0.044713 
r85 104 105 0.152258 
r86 103 114 0.0112231 
r87 102 113 0.0447675 
r88 102 103 3.52 
r89 166 99 1.6275 
r90 97 99 1.28 
r91 95 114 0.0310989 
r92 95 96 0.301935 
r93 90 96 0.044713 
r94 90 91 1.2375 
r95 89 112 0.0338756 
r96 88 97 0.0446983 
r97 88 89 0.51 
r98 83 112 0.00880368 
r99 83 84 1.28 
r100 82 111 0.0338756 
r101 81 112 0.0338756 
r102 81 82 0.43 
r103 76 111 0.00880368 
r104 76 77 1.415 
r105 74 111 0.0338756 
r106 74 75 0.51 
r107 69 75 0.0446983 
r108 69 70 1.415 
r109 252 26 0.00195122 
r110 26 208 3 
r111 8 252 0.0536585 
r112 8 205 3 
.ends

.subckt PM_PC3B02%U17_ngate2 51 61 66 102 108
c0 138 0 0.535473f
c1 137 0 1.05926f
c2 133 0 0.251576f
c3 131 0 0.400051f
c4 130 0 0.0671927f
c5 129 0 0.0750899f
c6 128 0 7.58922f
c7 127 0 3.92385f
c8 121 0 0.140917f
c9 112 0 0.15237f
c10 110 0 0.608149f
c11 109 0 0.169057f
c12 108 0 3.04886f
c13 102 0 3.04886f
c14 82 0 0.308328f
c15 74 0 3.11182f
c16 73 0 0.13299f
c17 71 0 0.0822206f
c18 70 0 0.227812f
c19 66 0 0.564314f
c20 61 0 1.528f
c21 59 0 0.0710256f
c22 58 0 0.121499f
c23 56 0 0.672508f
c24 55 0 3.58825f
c25 51 0 1.97363f
c26 26 0 0.449266f
r27 135 137 0.106489 
r28 135 149 1.5 
r29 141 133 6 
r30 131 133 6 
r31 130 131 0.53 
r32 128 137 0.0809637 
r33 128 129 8.87 
r34 127 130 0.0454198 
r35 126 129 0.0446983 
r36 126 127 5.202 
r37 121 123 0.0448391 
r38 121 122 0.0717241 
r39 138 118 0.00142683 
r40 115 138 0.0277856 
r41 112 141 0.07375 
r42 110 138 5.05882 
r43 109 138 5.05882 
r44 104 110 3.88985 
r45 104 108 183.96 
r46 99 109 3.88985 
r47 99 102 183.96 
r48 81 82 0.245 
r49 112 81 0.04 
r50 123 74 3.5675 
r51 74 82 6 
r52 122 73 6 
r53 71 73 0.0468966 
r54 65 66 0.79 
r55 60 61 1.745 
r56 58 60 0.0451268 
r57 58 59 0.124211 
r58 57 70 0.0321994 
r59 56 65 0.0447517 
r60 56 57 0.647059 
r61 55 59 0.0451268 
r62 54 71 0.0448391 
r63 54 55 5.505 
r64 50 81 0.02 
r65 50 51 2.2575 
r66 49 70 0.010241 
r67 49 51 1.98 
r68 149 26 0.00243902 
r69 26 118 3 
r70 8 149 0.0531707 
r71 8 115 3 
.ends

.subckt PM_PC3B02%U27_U72_pgate 22 41 101 103 114 125 153 159 164
c0 265 0 0.414606f
c1 262 0 0.306758f
c2 259 0 2.35654f
c3 257 0 0.223302f
c4 255 0 0.151681f
c5 253 0 16.0707f
c6 232 0 6.04244f
c7 230 0 0.0340832f
c8 229 0 0.0944101f
c9 228 0 0.189559f
c10 224 0 0.679809f
c11 219 0 0.879564f
c12 217 0 0.0612167f
c13 216 0 0.0386035f
c14 215 0 6.63368f
c15 206 0 0.730208f
c16 199 0 2.08909f
c17 196 0 0.146585f
c18 195 0 0.0571729f
c19 190 0 0.0940331f
c20 186 0 0.0221982f
c21 185 0 0.0419399f
c22 183 0 0.0743798f
c23 180 0 2.24557f
c24 178 0 0.0639048f
c25 177 0 0.356053f
c26 171 0 0.0623778f
c27 168 0 0.352109f
c28 164 0 1.50727f
c29 159 0 0.972253f
c30 157 0 0.0470945f
c31 156 0 0.417086f
c32 155 0 0.162756f
c33 153 0 1.51391f
c34 125 0 2.52517f
c35 119 0 1.79416f
c36 114 0 2.26547f
c37 112 0 0.0535543f
c38 111 0 0.400586f
c39 99 0 5.1026f
c40 90 0 4.80867f
c41 89 0 0.371977f
c42 83 0 0.40535f
c43 77 0 0.370539f
c44 35 0 0.309607f
c45 26 0 4.91819f
c46 24 0 0.105999f
c47 16 0 2.35998f
c48 7 0 4.99316f
c49 5 0 0.12938f
r50 262 263 0.32439 
r51 253 255 6 
r52 235 237 6 
r53 232 235 8.70933 
r54 232 255 6 
r55 228 237 0.0112 
r56 228 229 0.0514821 
r57 226 265 0.219512 
r58 263 226 0.16439 
r59 224 226 6 
r60 223 230 0.0143818 
r61 223 224 0.218272 
r62 221 262 0.219512 
r63 259 221 0.16039 
r64 219 221 6 
r65 218 230 0.0143818 
r66 218 219 0.468148 
r67 216 230 0.0324256 
r68 216 217 0.149677 
r69 215 217 0.0446983 
r70 229 215 10.3252 
r71 211 257 6 
r72 208 253 3.36774 
r73 250 208 11.4052 
r74 206 208 6 
r75 206 211 1.15143 
r76 203 247 6 
r77 199 203 0.717037 
r78 199 244 6 
r79 195 196 0.12 
r80 192 195 0.0451268 
r81 188 257 0.218571 
r82 187 190 0.0785714 
r83 187 188 0.02 
r84 179 190 0.02 
r85 179 180 3.30571 
r86 177 180 0.0461631 
r87 177 178 0.30026 
r88 172 186 0.0327921 
r89 171 186 0.0327921 
r90 170 178 0.0449793 
r91 170 171 0.0967164 
r92 169 185 0.0343218 
r93 168 186 0.00972501 
r94 168 169 0.514286 
r95 163 185 0.00843222 
r96 163 164 1.59625 
r97 158 183 0.0200702 
r98 158 159 1.20375 
r99 156 185 0.0343218 
r100 156 157 0.614603 
r101 155 183 0.0982456 
r102 154 157 0.0452323 
r103 154 155 0.395385 
r104 172 153 1.59625 
r105 125 122 2.3375 
r106 196 122 6 
r107 192 119 2.67 
r108 119 250 6 
r109 118 125 2.0425 
r110 113 114 2.0425 
r111 112 118 0.0446983 
r112 111 113 0.0446983 
r113 111 112 0.51 
r114 99 103 394.95 
r115 265 98 2.81176 
r116 98 99 1.5 
r117 90 101 394.95 
r118 89 263 2.74706 
r119 89 90 1.5 
r120 87 103 394.95 
r121 86 87 1.5 
r122 247 83 0.219512 
r123 83 86 2.78235 
r124 80 247 0.164878 
r125 78 101 394.95 
r126 77 80 2.74706 
r127 77 78 1.5 
r128 35 80 0.323902 
r129 244 35 0.219512 
r130 27 262 2.07647 
r131 26 41 394.95 
r132 26 27 4.2601 
r133 25 35 2.07647 
r134 24 41 394.95 
r135 24 25 4.2601 
r136 16 244 0.160878 
r137 8 259 2.07647 
r138 7 22 394.95 
r139 7 8 4.2601 
r140 6 16 2.07647 
r141 5 22 394.95 
r142 5 6 4.2601 
.ends

.subckt PM_PC3B02%U15_pgate 31 38 43 50 57 68 73 113 118 141 187 193
c0 208 0 2.87253f
c1 197 0 1.20506f
c2 193 0 0.00447021f
c3 187 0 0.00533422f
c4 176 0 15.9537f
c5 174 0 0.992437f
c6 171 0 0.808629f
c7 169 0 1.50352f
c8 165 0 1.49779f
c9 158 0 0.0544354f
c10 157 0 0.281237f
c11 151 0 0.994811f
c12 146 0 1.88332f
c13 143 0 0.0585713f
c14 142 0 0.191687f
c15 141 0 0.00280858f
c16 118 0 0.0118835f
c17 113 0 0.0122797f
c18 99 0 2.79555f
c19 96 0 1.17019f
c20 94 0 0.712525f
c21 93 0 2.54614f
c22 89 0 0.289859f
c23 85 0 0.028277f
c24 83 0 0.028277f
c25 81 0 0.0289103f
c26 80 0 0.232744f
c27 79 0 0.028277f
c28 78 0 0.030292f
c29 73 0 1.46953f
c30 68 0 1.39196f
c31 65 0 0.344617f
c32 63 0 0.102424f
c33 61 0 0.45127f
c34 57 0 1.4976f
c35 54 0 0.287058f
c36 50 0 2.86743f
c37 48 0 0.0459223f
c38 47 0 0.286924f
c39 43 0 2.69435f
c40 38 0 2.22599f
c41 36 0 0.0505388f
c42 35 0 0.320591f
c43 31 0 2.20098f
r44 204 205 0.336 
r45 202 204 6.00667 
r46 179 208 6 
r47 205 176 4.524 
r48 174 176 6 
r49 174 179 1.65857 
r50 171 197 6 
r51 169 193 1.43125 
r52 167 169 6 
r53 167 171 0.518356 
r54 165 187 1.4325 
r55 163 165 6 
r56 163 167 0.516164 
r57 157 159 0.0446983 
r58 157 158 0.2925 
r59 150 158 0.0446983 
r60 150 151 1.63125 
r61 145 208 3.87429 
r62 144 197 0.11625 
r63 143 144 0.0448998 
r64 142 145 0.0456127 
r65 142 143 0.183333 
r66 197 141 1.4375 
r67 99 118 4.4175 
r68 161 99 6 
r69 96 161 1.405 
r70 159 96 0.58875 
r71 96 205 6 
r72 94 155 1.395 
r73 94 204 6 
r74 93 113 4.545 
r75 155 93 6 
r76 151 91 6 
r77 146 89 6 
r78 146 86 2.26 
r79 86 202 6 
r80 84 118 1.3875 
r81 84 85 0.00880368 
r82 82 113 1.27 
r83 82 83 0.00880368 
r84 80 91 0.116143 
r85 80 81 0.0327397 
r86 77 89 0.215 
r87 77 78 0.0302706 
r88 72 73 1.3875 
r89 67 68 1.3625 
r90 66 85 0.0338756 
r91 65 72 0.0446983 
r92 65 66 0.51 
r93 64 83 0.0338756 
r94 63 85 0.0338756 
r95 63 64 0.2325 
r96 62 81 0.00977027 
r97 61 67 0.0448998 
r98 61 62 0.428889 
r99 56 81 0.0327397 
r100 56 57 1.3625 
r101 55 79 0.0338756 
r102 54 83 0.0338756 
r103 54 55 0.51 
r104 49 79 0.00880368 
r105 49 50 2.485 
r106 47 79 0.0338756 
r107 47 48 0.51 
r108 42 48 0.0446983 
r109 42 43 2.485 
r110 37 78 0.0302706 
r111 37 38 2.06 
r112 35 78 0.0119838 
r113 35 36 0.585714 
r114 30 36 0.0449572 
r115 30 31 2.06 
.ends

.subckt PM_PC3B02%CIN 14 19 26 65 117 157
c0 161 0 0.175984f
c1 154 0 0.179764f
c2 145 0 0.143188f
c3 136 0 0.153137f
c4 126 0 0.364703f
c5 120 0 5.80116f
c6 114 0 0.145071f
c7 112 0 0.981285f
c8 110 0 15.8693f
c9 108 0 1.30863f
c10 106 0 7.73217f
c11 104 0 0.0537499f
c12 103 0 4.58311f
c13 102 0 3.25007f
c14 100 0 0.127143f
c15 94 0 1.34308f
c16 91 0 0.0704816f
c17 89 0 0.0403523f
c18 88 0 0.0348746f
c19 86 0 0.0348253f
c20 85 0 1.43553f
c21 83 0 0.224584f
c22 81 0 7.82038f
c23 76 0 0.0936486f
c24 75 0 0.0503498f
c25 72 0 1.32847f
c26 69 0 0.329856f
c27 65 0 0.614531f
c28 61 0 0.0758895f
c29 60 0 0.124688f
c30 59 0 0.0657293f
c31 58 0 0.128459f
c32 57 0 5.22389f
c33 42 0 1.23588f
c34 38 0 0.0360401f
c35 35 0 0.0585777f
c36 30 0 0.415419f
c37 26 0 1.17591f
c38 24 0 0.0608575f
c39 23 0 0.358977f
c40 19 0 1.04062f
c41 14 0 0.647375f
r42 159 161 0.0753623 
r43 154 157 0.0261918 
r44 154 155 0.0513917 
r45 145 150 6 
r46 131 133 5.16857 
r47 128 161 6 
r48 150 126 0.314839 
r49 124 126 6 
r50 124 128 4.29286 
r51 120 122 6 
r52 120 124 4.15286 
r53 114 117 0.0261918 
r54 114 154 6 
r55 112 122 1.47429 
r56 133 110 12.0743 
r57 108 110 6 
r58 107 112 0.0446983 
r59 107 108 2.23571 
r60 105 159 0.020058 
r61 105 106 12.1858 
r62 103 106 0.0446983 
r63 103 104 6.85677 
r64 140 102 4.48 
r65 100 102 6 
r66 155 100 0.285714 
r67 98 104 0.0448488 
r68 98 100 0.0371429 
r69 91 140 3 
r70 89 91 0.15 
r71 87 89 0.0446983 
r72 87 88 0.114286 
r73 85 88 0.0446983 
r74 85 86 3.04143 
r75 81 83 6 
r76 80 86 0.0446983 
r77 80 81 14.96 
r78 76 136 6 
r79 75 76 0.124138 
r80 72 131 6 
r81 70 75 0.0447162 
r82 70 72 2.17143 
r83 68 145 0.0722581 
r84 68 69 0.00955498 