* File: pvdi.dist.sp.pex
* Created: Sun Jul  4 13:19:19 2010
* Program "Calibre xRC"
* Version "v2008.4_19.14"
* Nominal Temperature: 27C
* Circuit Temperature: 27C
* 
.subckt PM_PVDI%U31_U18_r1 78 83 168 173 258 263 282 332 337 342 347 352 358
+ 419
c0 501 0 0.784623f
c1 497 0 0.766676f
c2 493 0 0.781626f
c3 485 0 0.786668f
c4 481 0 0.766676f
c5 464 0 0.53408f
c6 460 0 0.419407f
c7 451 0 0.631044f
c8 444 0 0.751012f
c9 442 0 8.67932f
c10 440 0 5.99443f
c11 422 0 9.54281f
c12 421 0 0.742818f
c13 419 0 0.322877f
c14 417 0 1.79068f
c15 413 0 0.532995f
c16 412 0 0.250613f
c17 411 0 1.59795f
c18 407 0 0.0571471f
c19 406 0 0.249693f
c20 405 0 1.59825f
c21 401 0 0.533092f
c22 400 0 0.250687f
c23 399 0 1.59786f
c24 395 0 0.0571471f
c25 394 0 0.249693f
c26 393 0 1.59818f
c27 388 0 0.249699f
c28 387 0 1.60584f
c29 383 0 0.0569463f
c30 382 0 1.81688f
c31 381 0 0.0569463f
c32 379 0 0.0570132f
c33 377 0 0.0569463f
c34 375 0 0.0569463f
c35 373 0 0.21558f
c36 371 0 5.16126f
c37 370 0 0.0489987f
c38 364 0 0.0846802f
c39 363 0 0.562338f
c40 362 0 0.0854138f
c41 361 0 0.562338f
c42 360 0 0.0854138f
c43 359 0 0.503585f
c44 358 0 2.39087f
c45 352 0 2.34592f
c46 347 0 2.34592f
c47 342 0 2.34592f
c48 337 0 2.34592f
c49 332 0 2.38984f
c50 282 0 2.58233f
c51 263 0 2.34592f
c52 262 0 0.0854138f
c53 258 0 2.34592f
c54 257 0 0.0854138f
c55 173 0 2.34592f
c56 172 0 0.0854138f
c57 168 0 2.34592f
c58 167 0 0.0854138f
c59 83 0 2.34664f
c60 82 0 0.0854138f
c61 78 0 2.34592f
c62 77 0 0.0854138f
r63 487 513 1.5 
r64 485 511 0.217248 
r65 483 485 3 
r66 479 481 3 
r67 474 501 3 
r68 471 497 3 
r69 466 493 3 
r70 464 466 0.0573494 
r71 449 451 0.0942857 
r72 445 447 1.5 
r73 513 444 0.171385 
r74 442 444 1.5 
r75 442 445 0.827317 
r76 441 451 0.02 
r77 441 442 1.81626 
r78 440 449 0.02 
r79 439 440 1.51788 
r80 437 511 3 
r81 481 435 0.226603 
r82 433 435 3 
r83 433 437 0.662105 
r84 501 432 0.218249 
r85 430 432 3 
r86 430 433 0.663158 
r87 497 429 0.226603 
r88 427 429 3 
r89 427 430 0.661754 
r90 493 425 0.226603 
r91 423 425 3 
r92 423 427 0.662456 
r93 422 439 0.0450103 
r94 422 437 0.321404 
r95 421 447 0.0810627 
r96 417 419 3 
r97 416 421 0.0447229 
r98 416 417 0.536129 
r99 413 483 0.0573494 
r100 412 483 0.0351807 
r101 412 413 0.0192771 
r102 413 411 0.0207229 
r103 407 479 0.00144578 
r104 406 479 0.0351807 
r105 406 407 0.0192771 
r106 407 405 0.0207229 
r107 401 474 0.0568675 
r108 400 474 0.0356627 
r109 400 401 0.0192771 
r110 401 399 0.0207229 
r111 395 471 0.00144578 
r112 394 471 0.0351807 
r113 394 395 0.0192771 
r114 395 393 0.0207229 
r115 388 466 0.0351807 
r116 388 464 0.0192771 
r117 464 387 0.0207229 
r118 413 383 0.0207229 
r119 382 460 0.078656 
r120 382 383 0.709268 
r121 407 381 0.0207229 
r122 411 381 0.709268 
r123 401 379 0.0207229 
r124 405 379 0.709268 
r125 395 377 0.0207229 
r126 399 377 0.709268 
r127 464 375 0.0207229 
r128 393 375 0.709268 
r129 373 384 0.078656 
r130 387 373 0.709268 
r131 371 487 0.118347 
r132 370 487 0.562204 
r133 364 460 2.58824 
r134 363 407 5.05882 
r135 362 407 5.05882 
r136 361 395 5.05882 
r137 360 395 5.05882 
r138 359 384 2.58824 
r139 354 364 5.28991 
r140 354 358 367.92 
r141 349 363 5.28991 
r142 349 352 367.92 
r143 344 362 5.28991 
r144 344 347 367.92 
r145 339 361 5.28991 
r146 339 342 367.92 
r147 334 360 5.28991 
r148 334 337 367.92 
r149 329 359 5.28991 
r150 329 332 367.92 
r151 371 287 0.0954001 
r152 287 282 1.9113 
r153 281 370 0.0954001 
r154 281 282 1.9113 
r155 268 413 5.05882 
r156 267 413 5.05882 
r157 262 268 5.28991 
r158 262 263 367.92 
r159 257 267 5.28991 
r160 257 258 367.92 
r161 178 401 5.05882 
r162 177 401 5.05882 
r163 172 178 5.28991 
r164 172 173 367.92 
r165 167 177 5.28991 
r166 167 168 367.92 
r167 88 464 5.05882 
r168 87 464 5.05882 
r169 82 88 5.28991 
r170 82 83 367.92 
r171 77 87 5.28991 
r172 77 78 367.92 
.ends

.subckt PM_PVDI%VDD 25 51 87 113 149 175 205 786 906 926 932 934 940 952 956
+ 992 1010 1015 1019 1023 1027 1031 1035 1039 1050 1061
c0 1059 0 159.215f
c1 1048 0 15.2288f
c2 1039 0 7.94215f
c3 1035 0 12.9971f
c4 1031 0 12.9971f
c5 1027 0 13.0046f
c6 1023 0 12.9998f
c7 1019 0 13.01f
c8 1015 0 8.04772f
c9 1010 0 0.00235313f
c10 998 0 10.4287f
c11 992 0 1.59689f
c12 989 0 118.983f
c13 988 0 12.0462f
c14 985 0 3.1295f
c15 979 0 1.65017f
c16 974 0 2.07962f
c17 962 0 15.3265f
c18 956 0 1.74457f
c19 940 0 39.8128f
c20 927 0 15.3683f
c21 926 0 0.292593f
c22 923 0 14.0862f
c23 922 0 26.2093f
c24 921 0 64.3479f
c25 920 0 14.034f
c26 917 0 14.0334f
c27 914 0 14.0341f
c28 911 0 14.0319f
c29 887 0 121.154f
c30 885 0 0.623945f
c31 884 0 14.0942f
c32 879 0 4.77467f
c33 878 0 0.0861117f
c34 786 0 2.82296f
c35 733 0 6.89366f
c36 714 0 0.11068f
c37 713 0 2.07635f
c38 682 0 6.07285f
c39 220 0 11.1068f
c40 208 0 4.81957f
c41 203 0 0.8304f
c42 192 0 7.52869f
c43 175 0 3.81782f
c44 158 0 6.92253f
c45 149 0 3.81766f
c46 132 0 6.92253f
c47 113 0 3.81782f
c48 96 0 6.92253f
c49 87 0 3.81782f
c50 70 0 6.92253f
c51 51 0 3.81769f
c52 34 0 6.92253f
c53 25 0 3.81782f
c54 8 0 6.92253f
r55 1066 1067 0.00080402 
r56 1065 1066 0.0029796 
r57 1060 1061 0.000593149 
r58 1059 1060 0.0669731 
r59 1054 1055 0.16827 
r60 1012 1015 0.0369231 
r61 1012 1066 0.113208 
r62 1008 1010 0.004 
r63 1008 1065 0.12 
r64 998 1000 0.0181818 
r65 990 1055 0.0190476 
r66 989 998 0.00937584 
r67 989 990 0.0935212 
r68 988 1065 0.0075909 
r69 987 989 0.146839 
r70 987 988 0.0288462 
r71 977 979 1.5 
r72 974 977 1.47596 
r73 974 1054 0.4 
r74 969 970 0.00752787 
r75 968 969 0.021023 
r76 966 968 0.000537705 
r77 966 1059 0.00162999 
r78 964 966 0.000537705 
r79 962 964 0.0285508 
r80 938 940 0.000500966 
r81 937 938 0.0824842 
r82 934 937 0.000722473 
r83 930 1048 0.0250575 
r84 928 930 0.130435 
r85 927 1055 0.0781421 
r86 927 928 0.0477376 
r87 924 926 3 
r88 922 1000 0.0635754 
r89 922 923 0.319822 
r90 921 1061 0.125408 
r91 921 923 0.345778 
r92 922 920 0.319822 
r93 921 920 0.345778 
r94 922 917 0.319822 
r95 921 917 0.345778 
r96 922 914 0.319822 
r97 921 914 0.345778 
r98 922 911 0.319822 
r99 921 911 0.345778 
r100 905 906 0.00503607 
r101 904 1039 0.0369231 
r102 902 904 0.113208 
r103 902 905 0.00454169 
r104 901 1035 0.0256489 
r105 899 901 0.113208 
r106 899 902 0.0171733 
r107 898 1031 0.0256489 
r108 896 898 0.113208 
r109 896 899 0.0171733 
r110 895 1027 0.0256489 
r111 893 895 0.113208 
r112 893 896 0.0171733 
r113 892 1023 0.0256489 
r114 890 892 0.113208 
r115 890 893 0.0171733 
r116 889 1019 0.0256489 
r117 887 889 0.113208 
r118 887 890 0.0171733 
r119 1067 887 0.016369 
r120 885 924 0.0411277 
r121 922 884 0.319822 
r122 921 884 0.345778 
r123 880 979 0.578349 
r124 879 1010 2.191 
r125 878 1008 2.177 
r126 1048 786 3.42631 
r127 1010 760 0.159252 
r128 733 1010 0.159252 
r129 732 760 0.19514 
r130 879 731 0.045921 
r131 731 733 0.19514 
r132 714 1010 2.11181 
r133 713 732 0.0456322 
r134 713 1010 2.10217 
r135 1010 709 0.159252 
r136 682 1010 0.159252 
r137 681 714 0.0456322 
r138 681 709 0.19514 
r139 680 878 0.045921 
r140 680 682 0.19514 
r141 221 996 0.141 
r142 992 221 0.0621 
r143 221 938 0.0925926 
r144 220 932 0.00251501 
r145 928 220 0.0827731 
r146 996 220 0.6 
r147 217 960 0.105 
r148 956 217 0.0611 
r149 217 937 0.0925926 
r150 216 1054 0.0649107 
r151 1050 216 0.00408743 
r152 960 216 0.6 
r153 211 214 0.0022831 
r154 970 211 0.0375475 
r155 211 1060 0.00547945 
r156 210 952 0.150543 
r157 981 210 0.166667 
r158 952 208 0.148682 
r159 985 208 0.166667 
r160 205 985 0.299688 
r161 981 205 0.303438 
r162 205 905 0.12 
r163 203 885 0.101899 
r164 203 880 0.0482212 
r165 968 202 0.00210084 
r166 200 202 0.000537705 
r167 964 200 0.00210084 
r168 202 198 0.0105115 
r169 969 198 0.00712251 
r170 194 214 0.0187738 
r171 198 194 0.00376393 
r172 970 194 0.00712251 
r173 192 200 0.0142754 
r174 962 192 0.00356125 
r175 175 162 0.00249413 
r176 920 162 0.0425532 
r177 158 175 0.00249413 
r178 920 158 0.0425532 
r179 149 136 0.00249413 
r180 923 136 0.0425532 
r181 132 149 0.00249413 
r182 923 132 0.0425532 
r183 113 100 0.00249413 
r184 914 100 0.0425532 
r185 96 113 0.00249413 
r186 914 96 0.0425532 
r187 87 74 0.00249413 
r188 917 74 0.0425532 
r189 70 87 0.00249413 
r190 917 70 0.0425532 
r191 51 38 0.00249413 
r192 884 38 0.0425532 
r193 34 51 0.00249413 
r194 884 34 0.0425532 
r195 25 12 0.00249413 
r196 911 12 0.0425532 
r197 8 25 0.00249413 
r198 911 8 0.0425532 
.ends

.subckt PM_PVDI%noxref_3 8 15
c0 14 0 0.710808f
c1 13 0 0.329117f
c2 8 0 0.303039f
r3 14 16 0.02 
r4 13 15 0.0300645 
r5 13 14 0.232258 
r6 16 8 0.0278652 
.ends

.subckt PM_PVDI%U32_U31_r2 401 403 405 407 409 411 413 415 417 419 421 424 455
c0 510 0 0.34077f
c1 509 0 0.34077f
c2 508 0 0.34077f
c3 507 0 0.34077f
c4 506 0 0.34077f
c5 505 0 0.327981f
c6 504 0 0.341166f
c7 503 0 0.34077f
c8 502 0 0.34077f
c9 501 0 0.34077f
c10 498 0 7.51414f
c11 494 0 0.344032f
c12 493 0 0.344032f
c13 492 0 0.344032f
c14 491 0 0.344032f
c15 490 0 0.344032f
c16 489 0 0.330791f
c17 488 0 0.344427f
c18 487 0 0.344032f
c19 486 0 0.344032f
c20 485 0 0.345026f
c21 482 0 8.19789f
c22 471 0 0.292758f
c23 469 0 1.33595f
c24 463 0 0.418491f
c25 461 0 1.36643f
c26 458 0 1.68248f
c27 455 0 0.257955f
c28 451 0 8.28622f
c29 400 0 3.51065f
c30 388 0 0.111075f
c31 300 0 0.34077f
c32 297 0 0.344032f
c33 267 0 3.28548f
c34 265 0 0.0784737f
c35 234 0 3.28548f
c36 232 0 0.0784737f
c37 215 0 3.28548f
c38 213 0 0.0784737f
c39 182 0 3.28548f
c40 180 0 0.0784737f
c41 163 0 3.28736f
c42 161 0 0.0789571f
c43 130 0 3.28604f
c44 128 0 0.0784737f
c45 111 0 3.28606f
c46 109 0 0.0784737f
c47 78 0 3.28548f
c48 76 0 0.0784737f
c49 59 0 3.28548f
c50 57 0 0.0784737f
c51 26 0 3.28548f
c52 24 0 0.0784737f
c53 7 0 3.49514f
c54 5 0 0.0903591f
r55 509 510 0.238049 
r56 508 509 0.470244 
r57 507 508 0.238049 
r58 506 507 0.470244 
r59 505 506 0.238049 
r60 504 505 0.470244 
r61 503 504 0.238049 
r62 502 503 0.470244 
r63 501 502 0.238049 
r64 500 501 0.415122 
r65 498 500 0.055122 
r66 494 495 0.208293 
r67 493 494 0.238049 
r68 492 493 0.470244 
r69 491 492 0.238049 
r70 490 491 0.470244 
r71 489 490 0.238049 
r72 488 489 0.470244 
r73 487 488 0.238049 
r74 486 487 0.470244 
r75 485 486 0.238049 
r76 484 485 0.454634 
r77 482 484 0.0156098 
r78 474 500 3 
r79 471 519 0.00106667 
r80 469 471 3 
r81 469 474 0.811515 
r82 466 484 3 
r83 463 515 0.00592593 
r84 461 463 3 
r85 461 466 0.768485 
r86 458 495 3 
r87 453 455 3 
r88 453 458 0.349037 
r89 452 515 0.02 
r90 451 519 0.02 
r91 451 452 4.55722 
r92 400 424 487.92 
r93 388 424 487.92 
r94 510 300 0.470244 
r95 495 297 0.261951 
r96 287 300 2.76471 
r97 400 287 5.28991 
r98 285 297 2.76471 
r99 388 285 5.28991 
r100 268 510 2.76471 
r101 267 421 487.92 
r102 267 268 5.28991 
r103 266 494 2.76471 
r104 265 421 487.92 
r105 265 266 5.28991 
r106 235 509 2.76471 
r107 234 419 487.92 
r108 234 235 5.28991 
r109 233 493 2.76471 
r110 232 419 487.92 
r111 232 233 5.28991 
r112 216 508 2.76471 
r113 215 417 487.92 
r114 215 216 5.28991 
r115 214 492 2.76471 
r116 213 417 487.92 
r117 213 214 5.28991 
r118 183 507 2.76471 
r119 182 415 487.92 
r120 182 183 5.28991 
r121 181 491 2.76471 
r122 180 415 487.92 
r123 180 181 5.28991 
r124 164 506 2.76471 
r125 163 413 487.92 
r126 163 164 5.28991 
r127 162 490 2.76471 
r128 161 413 487.92 
r129 161 162 5.28991 
r130 131 505 2.76471 
r131 130 411 487.92 
r132 130 131 5.28991 
r133 129 489 2.76471 
r134 128 411 487.92 
r135 128 129 5.28991 
r136 112 504 2.76471 
r137 111 409 487.92 
r138 111 112 5.28991 
r139 110 488 2.76471 
r140 109 409 487.92 
r141 109 110 5.28991 
r142 79 503 2.76471 
r143 78 407 487.92 
r144 78 79 5.28991 
r145 77 487 2.76471 
r146 76 407 487.92 
r147 76 77 5.28991 
r148 60 502 2.76471 
r149 59 405 487.92 
r150 59 60 5.28991 
r151 58 486 2.76471 
r152 57 405 487.92 
r153 57 58 5.28991 
r154 27 501 2.76471 
r155 26 403 487.92 
r156 26 27 5.28991 
r157 25 485 2.76471 
r158 24 403 487.92 
r159 24 25 5.28991 
r160 8 498 2.76471 
r161 7 401 487.92 
r162 7 8 5.28991 
r163 6 482 2.76471 
r164 5 401 487.92 
r165 5 6 5.28991 
.ends

.subckt PM_PVDI%noxref_5 8 15
c0 14 0 0.651319f
c1 13 0 0.291795f
c2 8 0 0.276132f
r3 14 16 0.02 
r4 13 15 0.0300645 
r5 13 14 0.232258 
r6 16 8 0.0278652 
.ends

.subckt PM_PVDI%VSS 1179 1182 1185 1188 1191 1194 1197 1200 1263 1270 1276 1280
+ 1312 1331 1336 1341 1346 1351 1356 1362 1379 1389 1401
c0 1401 0 41.6665f
c1 1387 0 5.85209f
c2 1379 0 1.24866f
c3 1368 0 11.7155f
c4 1362 0 0.145467f
c5 1360 0 1.66286f
c6 1357 0 12.0118f
c7 1356 0 1.15225f
c8 1352 0 11.9974f
c9 1351 0 1.15117f
c10 1347 0 12f
c11 1346 0 1.15117f
c12 1342 0 12.0463f
c13 1341 0 1.17366f
c14 1337 0 11.9974f
c15 1336 0 1.15117f
c16 1332 0 11.9921f
c17 1331 0 1.15162f
c18 1308 0 7.14423f
c19 1306 0 0.977774f
c20 1305 0 0.233155f
c21 1302 0 7.95156f
c22 1294 0 14.6271f
c23 1291 0 3.39602f
c24 1285 0 14.1529f
c25 1276 0 90.7006f
c26 1268 0 0.383748f
c27 1266 0 0.406507f
c28 1263 0 0.219758f
c29 1261 0 0.509824f
c30 1260 0 0.180669f
c31 1244 0 10.0659f
c32 1240 0 1.94394f
c33 1238 0 0.371442f
c34 1237 0 0.994808f
c35 1216 0 11.1051f
c36 1210 0 7.06341f
c37 1200 0 2.03121f
c38 1197 0 1.8213f
c39 1194 0 1.85126f
c40 1191 0 1.85138f
c41 1188 0 1.81148f
c42 1185 0 1.81148f
c43 1182 0 1.81148f
c44 1179 0 2.02078f
c45 1176 0 1.85736f
c46 1174 0 1.85618f
c47 1172 0 1.85618f
c48 1170 0 1.85618f
c49 1168 0 1.88796f
c50 1166 0 1.8453f
c51 1164 0 1.8686f
c52 1162 0 1.86786f
c53 1161 0 1.79806f
c54 1158 0 7.77279f
c55 1012 0 0.324753f
c56 1010 0 0.375483f
c57 1008 0 7.63234f
c58 1007 0 0.262067f
c59 1006 0 0.327068f
c60 1005 0 0.250905f
c61 1004 0 0.577788f
c62 997 0 0.552459f
c63 865 0 0.236614f
c64 864 0 4.79129f
c65 863 0 2.00902f
c66 841 0 0.0538339f
c67 840 0 0.0695549f
c68 839 0 0.0538339f
c69 838 0 0.0771971f
c70 810 0 5.3169f
c71 806 0 0.665399f
c72 804 0 0.928065f
c73 776 0 5.42059f
c74 770 0 5.99521f
c75 740 0 6.42581f
c76 737 0 0.102637f
c77 736 0 0.562762f
c78 735 0 0.119773f
c79 734 0 0.766297f
c80 733 0 6.27034f
c81 221 0 1.83427f
c82 217 0 1.83862f
r83 1398 1399 0.0719442 
r84 1397 1398 0.026002 
r85 1396 1397 0.0282353 
r86 1395 1396 0.228674 
r87 1394 1395 0.0412363 
r88 1389 1392 0.00303091 
r89 1386 1387 0.0551111 
r90 1385 1386 0.0497778 
r91 1384 1385 0.0497778 
r92 1383 1384 0.0497778 
r93 1381 1383 0.0131556 
r94 1381 1395 0.0413793 
r95 1379 1381 0.00266667 
r96 1378 1379 0.0339556 
r97 1377 1378 0.0497778 
r98 1376 1377 0.0497778 
r99 1375 1376 0.0497778 
r100 1373 1375 0.0551111 
r101 1371 1399 0.142857 
r102 1368 1371 0.113659 
r103 1360 1362 0.30408 
r104 1360 1396 0.0416667 
r105 1356 1357 0.432326 
r106 1351 1352 0.432326 
r107 1346 1347 0.432326 
r108 1341 1342 0.432326 
r109 1336 1337 0.432326 
r110 1331 1332 0.432326 
r111 1328 1331 0.433488 
r112 1328 1406 0.6 
r113 1324 1326 3.64488 
r114 1321 1392 0.142857 
r115 1318 1321 0.109268 
r116 1312 1314 0.1891 
r117 1306 1308 1.5 
r118 1305 1306 0.270075 
r119 1302 1398 0.75 
r120 1300 1305 0.0485773 
r121 1300 1302 5.66835 
r122 1297 1298 1.4503 
r123 1294 1297 0.813861 
r124 1294 1397 0.3 
r125 1324 1291 2 
r126 1291 1406 0.246207 
r127 1289 1291 2 
r128 1288 1289 1.37301 
r129 1285 1288 0.830622 
r130 1285 1394 0.3 
r131 1280 1282 0.1891 
r132 1274 1276 0.000506675 
r133 1273 1274 0.0834503 
r134 1270 1273 0.000704656 
r135 1269 1308 3.2697 
r136 1265 1406 0.0568966 
r137 1265 1266 0.0407455 
r138 1261 1263 3 
r139 1260 1269 0.0448535 
r140 1260 1261 0.141429 
r141 1256 1357 0.6 
r142 1253 1352 0.6 
r143 1253 1256 0.279231 
r144 1250 1347 0.6 
r145 1250 1253 0.279231 
r146 1247 1342 0.6 
r147 1247 1250 0.279231 
r148 1244 1337 0.6 
r149 1244 1247 0.279231 
r150 1268 1244 0.0942308 
r151 1240 1332 0.6 
r152 1239 1268 0.04 
r153 1239 1240 0.140657 
r154 1238 1240 0.122254 
r155 1238 1237 0.04 
r156 1230 1356 0.433488 
r157 1228 1230 0.6 
r158 1227 1351 0.433488 
r159 1225 1227 0.6 
r160 1225 1228 0.273962 
r161 1224 1346 0.433488 
r162 1222 1224 0.6 
r163 1222 1225 0.273962 
r164 1221 1341 0.433488 
r165 1219 1221 0.6 
r166 1219 1222 0.273962 
r167 1218 1336 0.433488 
r168 1216 1218 0.6 
r169 1216 1219 0.273962 
r170 1266 1216 0.167925 
r171 1210 1211 0.089172 
r172 1209 1210 0.089172 
r173 1208 1209 0.089172 
r174 1207 1360 0.0488 
r175 1206 1208 0.089172 
r176 1206 1207 0.0204618 
r177 1205 1206 0.089172 
r178 1204 1205 0.089172 
r179 1203 1204 0.089172 
r180 1202 1203 0.089172 
r181 1211 1200 0.35928 
r182 1210 1197 0.35928 
r183 1193 1209 0.0204618 
r184 1193 1194 0.35288 
r185 1190 1208 0.0204618 
r186 1190 1191 0.35288 
r187 1205 1188 0.35928 
r188 1204 1185 0.35928 
r189 1203 1182 0.35928 
r190 1202 1179 0.35928 
r191 1176 1386 0.02 
r192 1176 1379 0.30632 
r193 1174 1385 0.02 
r194 1174 1379 0.30632 
r195 1172 1384 0.02 
r196 1172 1379 0.30632 
r197 1170 1383 0.02 
r198 1170 1379 0.30632 
r199 1168 1378 0.02 
r200 1168 1379 0.30632 
r201 1166 1377 0.02 
r202 1166 1379 0.30632 
r203 1164 1376 0.02 
r204 1164 1379 0.30632 
r205 1162 1375 0.02 
r206 1162 1379 0.30632 
r207 1161 1373 0.02 
r208 1160 1371 0.349756 
r209 1159 1368 0.02 
r210 1158 1326 0.546341 
r211 1157 1324 0.522927 
r212 1156 1318 0.02 
r213 1155 1321 0.354146 
r214 1017 1019 1.676 
r215 1014 1237 0.106276 
r216 1014 1326 2 
r217 1298 1014 2 
r218 1019 1012 1.5 
r219 1297 1012 1.5 
r220 1017 1010 1 
r221 1288 1010 1 
r222 1008 1019 0.459111 
r223 1160 1007 0.0420897 
r224 1006 1017 0.462222 
r225 1155 1005 0.0420897 
r226 1004 1008 0.0474127 
r227 1007 1004 0.120863 
r228 1159 1000 2.94 
r229 1156 1000 2.904 
r230 997 1006 0.0474127 
r231 1005 997 0.120863 
r232 874 1161 0.5605 
r233 864 874 0.0446983 
r234 864 865 1.21 
r235 863 1387 0.02 
r236 862 865 0.0446983 
r237 862 863 0.5605 
r238 1158 840 0.0420172 
r239 1157 838 0.0420172 
r240 1000 837 0.106 
r241 810 1000 0.106 
r242 809 837 0.347333 
r243 808 810 0.345333 
r244 807 841 0.0412274 
r245 806 809 0.0465329 
r246 806 807 0.578095 
r247 805 840 0.0420172 
r248 804 808 0.0467869 
r249 804 805 0.592195 
r250 1000 803 0.159252 
r251 776 1000 0.159252 
r252 775 841 0.00319614 
r253 775 803 0.349159 
r254 774 840 0.00265108 
r255 774 776 0.346916 
r256 771 839 0.0412274 
r257 771 1000 0.253333 
r258 770 841 0.0412274 
r259 770 1000 4.34857 
r260 1000 767 0.161495 
r261 740 1000 0.161495 
r262 739 839 0.00319614 
r263 739 767 0.346916 
r264 738 838 0.00265108 
r265 738 740 0.344673 
r266 736 839 0.0412274 
r267 736 737 0.578095 
r268 734 838 0.0420172 
r269 734 735 0.592195 
r270 733 737 0.0465329 
r271 732 735 0.0467869 
r272 732 733 3.32467 
r273 221 1312 0.0129 
r274 221 1274 0.131579 
r275 220 1401 0.00318245 
r276 1399 220 0.0129212 
r277 1314 220 0.428571 
r278 217 1280 0.0249 
r279 217 1273 0.131579 
r280 216 1394 0.101926 
r281 1392 216 0.00128415 
r282 1282 216 0.428571 
.ends

.subckt PM_PVDI%VSSO 169 332 495 930 933 936 939 942 945 948 951 992 996 999
+ 1005 1009 1041 1045 1059 1065 1069 1072 1080 1089 1099 1108 1157 1166
c0 1166 0 37.0705f
c1 1151 0 7.22703f
c2 1145 0 7.22674f
c3 1139 0 7.227f
c4 1133 0 7.22674f
c5 1127 0 7.2148f
c6 1116 0 7.15753f
c7 1108 0 1.24866f
c8 1072 0 1.92885f
c9 1065 0 14.3762f
c10 1057 0 0.495151f
c11 1051 0 6.51494f
c12 1039 0 1.05014f
c13 1038 0 0.156062f
c14 1037 0 2.5033f
c15 1034 0 6.92596f
c16 1030 0 5.64528f
c17 1014 0 19.2783f
c18 1013 0 52.2162f
c19 1007 0 1.10349f
c20 1005 0 30.0892f
c21 996 0 9.54257f
c22 987 0 0.40025f
c23 986 0 0.7156f
c24 984 0 6.85849f
c25 975 0 5.00149f
c26 973 0 0.397249f
c27 972 0 0.717171f
c28 971 0 0.233945f
c29 970 0 4.9945f
c30 967 0 1.78874f
c31 965 0 1.80362f
c32 963 0 1.7821f
c33 961 0 1.82148f
c34 959 0 1.78702f
c35 957 0 1.78525f
c36 955 0 1.78525f
c37 953 0 1.78644f
c38 951 0 1.94986f
c39 948 0 1.93006f
c40 945 0 1.93006f
c41 942 0 1.93006f
c42 939 0 1.97833f
c43 936 0 1.983f
c44 933 0 1.94266f
c45 930 0 1.94959f
c46 899 0 0.121254f
c47 898 0 9.88718f
c48 868 0 0.242203f
c49 865 0 2.05212f
c50 864 0 1.89141f
c51 862 0 7.03182f
c52 595 0 0.295655f
c53 594 0 5.70599f
c54 518 0 5.84182f
c55 410 0 13.7368f
c56 360 0 13.7369f
c57 247 0 13.7368f
c58 197 0 13.7369f
c59 34 0 13.737f
c60 10 0 0.146306f
c61 4 0 0.146306f
r62 1163 1164 0.170267 
r63 1162 1163 0.310588 
r64 1161 1162 0.169519 
r65 1147 1149 0.00295856 
r66 1141 1143 0.00296109 
r67 1135 1137 0.00295856 
r68 1129 1131 0.00296109 
r69 1123 1125 0.00295856 
r70 1115 1116 0.0551111 
r71 1114 1115 0.0497778 
r72 1113 1114 0.0497778 
r73 1112 1113 0.0497778 
r74 1110 1112 0.0311111 
r75 1110 1163 0.0413793 
r76 1108 1110 0.00284444 
r77 1107 1108 0.0158222 
r78 1106 1107 0.0497778 
r79 1105 1106 0.0497778 
r80 1104 1105 0.0497778 
r81 1102 1104 0.0551111 
r82 1096 1099 0.0126606 
r83 1089 1143 0.130435 
r84 1080 1131 0.130435 
r85 1075 1162 0.04 
r86 1072 1075 0.29128 
r87 1067 1069 0.0126027 
r88 1067 1120 0.0320856 
r89 1065 1096 0.013211 
r90 1065 1067 0.0131507 
r91 1055 1057 0.0762416 
r92 1054 1127 0.00156912 
r93 1125 1054 0.0013945 
r94 1052 1054 0.0253165 
r95 1051 1120 0.0219469 
r96 1049 1051 0.0437956 
r97 1049 1052 0.0209309 
r98 1048 1049 0.00301385 
r99 1047 1048 0.00511406 
r100 1045 1047 0.00459197 
r101 1039 1041 0.4449 
r102 1038 1057 0.02 
r103 1037 1059 0.126588 
r104 1037 1038 0.0641176 
r105 1034 1164 0.3 
r106 1032 1055 0.02 
r107 1032 1034 0.854354 
r108 1028 1030 0.0425532 
r109 1028 1031 0.00231132 
r110 1027 1151 0.00156912 
r111 1149 1027 0.0013945 
r112 1025 1027 0.0253165 
r113 1025 1028 0.0196698 
r114 1024 1145 0.00156912 
r115 1143 1024 0.00139196 
r116 1022 1024 0.0253165 
r117 1022 1025 0.0222642 
r118 1021 1139 0.00156912 
r119 1137 1021 0.0013945 
r120 1019 1021 0.0253165 
r121 1019 1022 0.0222642 
r122 1018 1019 0.00169811 
r123 1017 1133 0.00156912 
r124 1131 1017 0.00139196 
r125 1015 1017 0.0253165 
r126 1015 1018 0.020566 
r127 1014 1052 0.00985849 
r128 1014 1015 0.0124057 
r129 1013 1059 0.0207349 
r130 1013 1031 0.00478774 
r131 1007 1009 0.4449 
r132 1003 1005 0.00199444 
r133 1002 1003 0.35605 
r134 999 1002 0.00306111 
r135 988 1099 0.230275 
r136 986 1065 0.211193 
r137 986 987 0.0861375 
r138 984 985 0.089172 
r139 983 984 0.089172 
r140 982 983 0.089172 
r141 981 1075 0.0616 
r142 980 982 0.089172 
r143 980 981 0.0204618 
r144 979 980 0.089172 
r145 978 979 0.089172 
r146 977 978 0.089172 
r147 976 977 0.089172 
r148 974 1069 0.229041 
r149 974 975 0.0863581 
r150 972 1065 0.210046 
r151 972 973 0.0863581 
r152 988 970 0.0861375 
r153 970 971 0.132033 
r154 967 1115 0.02 
r155 967 1108 0.30632 
r156 965 1114 0.02 
r157 965 1108 0.30632 
r158 963 1113 0.02 
r159 963 1108 0.30632 
r160 961 1112 0.02 
r161 961 1108 0.30632 
r162 959 1107 0.02 
r163 959 1108 0.30632 
r164 957 1106 0.02 
r165 957 1108 0.30632 
r166 955 1105 0.02 
r167 955 1108 0.30632 
r168 953 1104 0.02 
r169 953 1108 0.30632 
r170 985 951 0.35928 
r171 984 948 0.35928 
r172 983 945 0.35928 
r173 982 942 0.35928 
r174 938 979 0.0204618 
r175 938 939 0.35288 
r176 935 978 0.0204618 
r177 935 936 0.35288 
r178 977 933 0.35928 
r179 976 930 0.35928 
r180 899 1065 0.128 
r181 898 971 0.0473573 
r182 898 1065 0.126 
r183 868 899 0.0473573 
r184 975 868 0.132033 
r185 865 1116 0.02 
r186 864 1102 0.02 
r187 862 1065 0.126 
r188 861 1065 0.128 
r189 604 865 0.5605 
r190 594 604 0.0446983 
r191 594 595 1.21 
r192 592 595 0.0446983 
r193 592 864 0.5605 
r194 1041 525 0.2101 
r195 525 1003 0.357143 
r196 524 1166 0.00383957 
r197 1164 524 0.0203209 
r198 1039 524 1 
r199 522 996 0.0418839 
r200 992 522 0.0414748 
r201 1018 522 0.00120077 
r202 518 1161 0.666667 
r203 516 1047 0.020124 
r204 516 518 1.88419 
r205 1009 514 0.1981 
r206 514 1002 0.357143 
r207 513 1161 0.0147487 
r208 1157 513 0.00589305 
r209 1007 513 1 
r210 1120 509 0.264071 
r211 1048 509 1 
r212 1031 507 3 
r213 1149 495 0.130435 
r214 1089 410 0.00313778 
r215 1145 410 0.0652174 
r216 495 400 0.0031351 
r217 1147 400 0.0652174 
r218 360 495 0.00314046 
r219 1151 360 0.0652174 
r220 349 507 0.289709 
r221 1030 349 0.0120388 
r222 349 1096 0.0320856 
r223 1137 332 0.130435 
r224 1080 247 0.00313778 
r225 1133 247 0.0652174 
r226 332 237 0.0031351 
r227 1135 237 0.0652174 
r228 197 332 0.00314046 
r229 1139 197 0.0652174 
r230 187 1089 0.00313778 
r231 1141 187 0.0652174 
r232 1125 169 0.130435 
r233 169 74 0.0031351 
r234 1123 74 0.0652174 
r235 34 169 0.00314046 
r236 1127 34 0.0652174 
r237 24 1080 0.00313778 
r238 1129 24 0.0652174 
r239 10 987 0.250407 
r240 10 862 0.0473573 
r241 4 973 0.250407 
r242 4 861 0.0473573 
.ends

.subckt PM_PVDI%VDDO 629 634 637 641 644 649 653 657 662 673 678 683 694 701
c0 701 0 48.1717f
c1 693 0 0.360168f
c2 690 0 0.258023f
c3 682 0 2.98192f
c4 673 0 55.075f
c5 666 0 30.2975f
c6 662 0 69.1606f
c7 649 0 6.29232f
c8 641 0 2.62113f
c9 634 0 20.7157f
c10 563 0 9.34624f
c11 562 0 9.76231f
c12 451 0 0.622806f
c13 439 0 0.573266f
c14 436 0 0.427422f
c15 17 0 0.165366f
c16 16 0 6.97956f
c17 7 0 0.165366f
c18 6 0 6.94845f
r19 700 701 0.00347712 
r20 699 700 0.528105 
r21 698 699 0.00897603 
r22 697 698 0.0210806 
r23 694 697 0.00480174 
r24 691 693 0.0237166 
r25 682 685 0.000325203 
r26 682 684 0.121045 
r27 682 683 0.02 
r28 678 680 0.1811 
r29 672 673 0.130751 
r30 671 685 0.02 
r31 671 672 0.101349 
r32 684 669 0.185058 
r33 669 699 0.1 
r34 666 669 1.15666 
r35 657 660 0.0110207 
r36 653 655 0.1811 
r37 647 649 0.0542058 
r38 644 647 0.0536763 
r39 680 633 0.5 
r40 633 634 0.00284461 
r41 595 691 0.2136 
r42 693 595 0.1408 
r43 563 691 0.2648 
r44 562 691 0.2648 
r45 561 690 0.1768 
r46 560 691 0.2664 
r47 455 698 0.02 
r48 455 456 0.758885 
r49 451 678 0.1699 
r50 451 700 1.5 
r51 449 662 0.108412 
r52 660 449 0.0963319 
r53 449 647 0.00150602 
r54 456 448 0.510769 
r55 660 448 0.2 
r56 446 641 0.0653756 
r57 637 446 0.0655388 
r58 672 446 0.00181159 
r59 685 443 0.0410949 
r60 443 456 0.2 
r61 442 633 0.468512 
r62 629 442 0.00395612 
r63 655 442 0.5 
r64 439 653 0.1699 
r65 439 697 1.5 
r66 625 437 3 
r67 437 691 0.00276817 
r68 437 690 0.0668999 
r69 437 436 3 
r70 436 625 0.0331915 
r71 666 436 1.5 
r72 563 17 0.0456946 
r73 17 691 1.22646 
r74 16 562 0.0456946 
r75 16 691 1.22092 
r76 561 7 0.0456946 
r77 7 691 1.22646 
r78 6 560 0.0456946 
r79 6 691 1.22092 
.ends

