* File: pc3b25eu.dist.sp.pex
* Created: Sun Jul  4 12:21:04 2010
* Program "Calibre xRC"
* Version "v2008.4_19.14"
* Nominal Temperature: 27C
* Circuit Temperature: 27C
* 
.subckt PM_PC3B25EU%PAD 21 50 79 108 137 166 218 242 266 290 320 326 389 428
+ 452 459
c0 467 0 29.5f
c1 460 0 83.0333f
c2 459 0 64.3341f
c3 456 0 159.215f
c4 451 0 1.02644f
c5 444 0 9.95412f
c6 434 0 13.8349f
c7 425 0 0.117887f
c8 423 0 215.863f
c9 408 0 15.3329f
c10 397 0 46.9248f
c11 392 0 65.4578f
c12 390 0 15.9385f
c13 389 0 1.0325f
c14 388 0 3.88468f
c15 326 0 13.467f
c16 320 0 13.4871f
c17 290 0 13.4768f
c18 266 0 13.485f
c19 242 0 13.7729f
c20 218 0 13.4732f
c21 176 0 7.52869f
c22 166 0 2.98552f
c23 149 0 6.78371f
c24 137 0 2.98621f
c25 120 0 6.78371f
c26 108 0 2.98621f
c27 91 0 6.78371f
c28 79 0 2.98621f
c29 62 0 6.78371f
c30 50 0 2.9855f
c31 33 0 6.78371f
c32 21 0 2.98537f
c33 4 0 6.78371f
r34 467 468 0.118407 
r35 466 467 0.118407 
r36 465 466 0.056883 
r37 464 465 0.061524 
r38 463 464 0.118407 
r39 462 463 0.0830354 
r40 461 462 0.0353716 
r41 459 460 0.0121661 
r42 457 459 0.000909495 
r43 456 457 0.0669731 
r44 451 452 0.00916 
r45 444 462 0.0545455 
r46 434 465 0.015 
r47 425 428 0.00916 
r48 425 451 2 
r49 423 434 0.0264274 
r50 421 423 0.147454 
r51 421 422 0.0288462 
r52 415 416 0.00752787 
r53 414 415 0.021023 
r54 412 414 0.000537705 
r55 412 456 0.00162999 
r56 410 412 0.000537705 
r57 408 410 0.0285508 
r58 399 451 0.1388 
r59 398 399 0.132996 
r60 397 398 0.0171733 
r61 394 395 0.0171733 
r62 393 394 0.0171733 
r63 392 393 0.0171733 
r64 391 397 0.0142401 
r65 391 395 0.00293318 
r66 390 422 0.00646891 
r67 390 392 0.00818451 
r68 388 444 0.202116 
r69 388 389 0.0147368 
r70 315 320 0.0072093 
r71 392 315 0.0566038 
r72 313 326 0.0072093 
r73 398 313 0.0566038 
r74 286 290 0.0072093 
r75 397 286 0.0566038 
r76 262 266 0.0072093 
r77 395 262 0.0566038 
r78 238 242 0.0072093 
r79 394 238 0.0566038 
r80 214 218 0.0072093 
r81 393 214 0.0566038 
r82 194 197 0.0022831 
r83 416 194 0.0375475 
r84 194 457 0.00547945 
r85 414 193 0.00210084 
r86 191 193 0.000537705 
r87 410 191 0.00210084 
r88 193 182 0.0105115 
r89 415 182 0.00712251 
r90 178 197 0.0187738 
r91 182 178 0.00376393 
r92 416 178 0.00712251 
r93 176 191 0.0142754 
r94 408 176 0.00356125 
r95 460 173 0.345778 
r96 172 468 0.0220132 
r97 172 173 0.319822 
r98 166 153 0.00249413 
r99 173 153 0.0425532 
r100 149 166 0.00249413 
r101 173 149 0.0425532 
r102 460 144 0.345778 
r103 143 467 0.0220132 
r104 143 144 0.319822 
r105 137 124 0.00249413 
r106 144 124 0.0425532 
r107 120 137 0.00249413 
r108 144 120 0.0425532 
r109 460 115 0.345778 
r110 114 466 0.0220132 
r111 114 115 0.319822 
r112 108 95 0.00249413 
r113 115 95 0.0425532 
r114 91 108 0.00249413 
r115 115 91 0.0425532 
r116 460 86 0.345778 
r117 85 464 0.0220132 
r118 85 86 0.319822 
r119 79 66 0.00249413 
r120 86 66 0.0425532 
r121 62 79 0.00249413 
r122 86 62 0.0425532 
r123 460 57 0.345778 
r124 56 463 0.0220132 
r125 56 57 0.319822 
r126 50 37 0.00249413 
r127 57 37 0.0425532 
r128 33 50 0.00249413 
r129 57 33 0.0425532 
r130 460 28 0.345778 
r131 27 461 0.0220132 
r132 27 28 0.319822 
r133 21 8 0.00249413 
r134 28 8 0.0425532 
r135 4 21 0.00249413 
r136 28 4 0.0425532 
.ends

.subckt PM_PC3B25EU%noxref_2 8 18
c0 20 0 4.81245f
c1 18 0 0.987844f
c2 8 0 6.70725f
r3 18 20 0.158105 
r4 20 8 0.158526 
.ends

.subckt PM_PC3B25EU%net_m20_VSSO_res 25 95 99 103 107 111
c0 111 0 0.519409f
c1 107 0 0.519409f
c2 103 0 0.519409f
c3 99 0 0.713408f
c4 95 0 0.73297f
c5 91 0 0.816519f
c6 89 0 0.103273f
c7 53 0 0.0631005f
c8 43 0 0.241637f
c9 42 0 0.19588f
c10 41 0 0.135544f
c11 40 0 0.0994751f
c12 39 0 0.162435f
c13 25 0 0.381195f
c14 24 0 0.200978f
c15 23 0 0.0478845f
c16 22 0 0.383656f
r17 89 91 0.0223492 
r18 86 89 0.124706 
r19 54 95 85 
r20 52 111 85 
r21 52 53 0.93595 
r22 51 107 85 
r23 50 51 1.5553 
r24 49 91 2.20253 
r25 48 50 6.2212 
r26 48 49 1.5553 
r27 47 103 85 
r28 46 48 10.0922 
r29 46 47 1.5553 
r30 45 99 85 
r31 44 53 2.23066 
r32 43 54 3.37824 
r33 43 44 10.8571 
r34 42 50 4.70046 
r35 41 53 2.23066 
r36 41 42 9 
r37 40 45 3.37824 
r38 39 46 2.90323 
r39 39 40 10.8571 
r40 24 25 0.18 
r41 86 23 0.0446983 
r42 22 24 0.0446983 
r43 22 23 0.521176 
.ends

.subckt PM_PC3B25EU%U29_padr 46 54 135 137 139 141 146 197 199
c0 293 0 9.31194f
c1 291 0 0.387521f
c2 289 0 0.320962f
c3 287 0 16.0354f
c4 277 0 16.0465f
c5 261 0 0.145032f
c6 260 0 0.0372673f
c7 259 0 0.0478417f
c8 258 0 0.0873247f
c9 255 0 7.01058f
c10 252 0 0.602534f
c11 250 0 5.63191f
c12 248 0 0.516722f
c13 246 0 0.0693973f
c14 245 0 0.17633f
c15 244 0 0.352674f
c16 232 0 1.17869f
c17 227 0 2.01743f
c18 221 0 2.3027f
c19 209 0 0.256421f
c20 206 0 0.243334f
c21 199 0 1.07645f
c22 198 0 0.703354f
c23 197 0 0.585737f
c24 165 0 0.133192f
c25 160 0 0.286952f
c26 155 0 0.0968101f
c27 146 0 2.47317f
c28 141 0 0.869034f
c29 139 0 0.825116f
c30 137 0 0.576932f
c31 135 0 0.757691f
c32 112 0 0.128137f
c33 89 0 0.290032f
c34 84 0 0.634432f
c35 81 0 1.41979f
c36 78 0 2.25743f
c37 73 0 0.618925f
c38 70 0 0.0899759f
c39 66 0 0.0838821f
c40 60 0 1.8637f
c41 58 0 0.0382181f
c42 57 0 0.148665f
c43 54 0 1.53201f
c44 51 0 0.0695536f
c45 50 0 0.382333f
c46 46 0 2.39986f
r47 289 299 0.17 
r48 287 289 6 
r49 284 285 1.32 
r50 283 284 0.216 
r51 281 283 0.456 
r52 299 279 0.172857 
r53 277 279 6 
r54 274 275 1.31733 
r55 273 274 0.218667 
r56 271 273 0.456 
r57 261 263 3 
r58 260 261 0.109474 
r59 260 258 0.0456991 
r60 258 259 0.147143 
r61 255 299 2 
r62 253 259 0.0446983 
r63 253 255 10.3129 
r64 252 263 0.30381 
r65 293 250 0.185079 
r66 248 250 1.2 
r67 247 248 0.482857 
r68 245 247 0.0446983 
r69 245 246 0.125714 
r70 244 246 0.0446983 
r71 243 252 0.0446983 
r72 243 244 0.407619 
r73 240 291 6 
r74 238 277 3.02667 
r75 275 238 6.53733 
r76 236 238 6 
r77 236 240 1.15117 
r78 234 287 3.024 
r79 285 234 6.54 
r80 232 234 6 
r81 232 236 0.249351 
r82 209 212 0.0447121 
r83 209 210 0.243636 
r84 206 213 0.0447121 
r85 206 207 0.243636 
r86 203 291 0.44987 
r87 198 293 0.18836 
r88 198 199 0.0147368 
r89 197 203 0.1041 
r90 165 168 0.0075 
r91 131 141 80.8333 
r92 131 160 3.42502 
r93 119 139 93.5 
r94 113 137 51.6667 
r95 165 112 1.5 
r96 112 113 1.5 
r97 104 135 93.5 
r98 155 104 3.56788 
r99 160 99 0.14069 
r100 227 99 6 
r101 227 96 2.48 
r102 96 285 6 
r103 96 94 0.329655 
r104 94 275 6 
r105 221 92 2.09625 
r106 92 284 6 
r107 90 225 1.25375 
r108 92 90 0.3 
r109 90 274 6 
r110 225 89 6 
r111 168 87 0.0375 
r112 221 87 6 
r113 84 283 6 
r114 82 219 1.2525 
r115 84 82 0.3 
r116 82 273 6 
r117 81 155 2.98338 
r118 219 81 6 
r119 212 78 2.0875 
r120 78 281 6 
r121 213 76 1.21125 
r122 78 76 0.30125 
r123 76 271 6 
r124 146 75 1.5325 
r125 210 75 6 
r126 207 73 6 
r127 68 89 0.53 
r128 67 70 0.0971429 
r129 67 68 0.02 
r130 64 66 0.12 
r131 64 73 0.8825 
r132 63 146 1.3775 
r133 119 60 3.85359 
r134 59 70 0.02 
r135 59 60 2.485 
r136 57 168 0.02 
r137 57 58 0.25 
r138 53 58 0.0446983 
r139 53 54 1.48625 
r140 52 54 1.3775 
r141 51 63 0.0447588 
r142 50 52 0.0447588 
r143 50 51 0.544 
r144 66 46 2.375 
.ends

.subckt PM_PC3B25EU%U32_U1_OUTSHIFT 9 39 75 91
c0 99 0 0.61447f
c1 91 0 0.0863292f
c2 87 0 0.0954699f
c3 86 0 0.498552f
c4 75 0 0.638857f
c5 74 0 0.161375f
c6 71 0 0.471881f
c7 69 0 0.0483795f
c8 68 0 0.371096f
c9 64 0 14.5418f
c10 62 0 0.509769f
c11 59 0 1.78434f
c12 57 0 0.0532339f
c13 56 0 0.160264f
c14 50 0 0.749666f
c15 42 0 0.373738f
c16 38 0 0.0396705f
c17 37 0 0.777883f
c18 36 0 0.122203f
c19 9 0 1.96451f
c20 4 0 0.61357f
r21 86 91 52.3333 
r22 86 87 2.1393 
r23 74 75 3.93 
r24 71 99 6 
r25 69 71 0.587097 
r26 66 68 6 
r27 93 64 3.236 
r28 62 64 6 
r29 62 66 0.596129 
r30 61 69 0.0446983 
r31 61 66 0.0696774 
r32 58 59 2.3625 
r33 56 58 0.0449572 
r34 56 57 0.145714 
r35 53 57 0.0446983 
r36 52 99 0.912857 
r37 51 68 0.433548 
r38 74 46 0.77573 
r39 42 52 0.0446983 
r40 42 87 0.425714 
r41 38 50 0.0492771 
r42 38 39 0.458723 
r43 37 51 0.0471889 
r44 37 39 0.378723 
r45 46 36 0.071405 
r46 50 36 1.40258 
r47 9 7 1.525 
r48 59 7 6 
r49 53 4 0.985714 
r50 4 93 6 
.ends

.subckt PM_PC3B25EU%VDDO 762 769 776 783 790 797 804 817 922 943 944 950 953
+ 958 971 975 979 986 1057 1294 1302 1364 1368 1371 1375 1383 1390 1411 1440 1450
+ 1458 1466 1472 1478 1484 1490 1498 1503 1509 1555 1572 1601 1606
c0 1606 0 21.3141f
c1 1598 0 4.28473f
c2 1589 0 7.42905f
c3 1580 0 8.84455f
c4 1575 0 5.91577f
c5 1572 0 53.6197f
c6 1552 0 2.59726f
c7 1549 0 2.59474f
c8 1509 0 1.39365f
c9 1503 0 2.72226f
c10 1498 0 0.0112086f
c11 1496 0 3.67696f
c12 1490 0 1.06875f
c13 1484 0 2.08764f
c14 1478 0 0.814652f
c15 1472 0 1.88999f
c16 1466 0 2.45024f
c17 1463 0 4.54716f
c18 1447 0 0.505531f
c19 1443 0 32.178f
c20 1442 0 1.93836f
c21 1440 0 65.9774f
c22 1438 0 1.61686f
c23 1389 0 53.1851f
c24 1379 0 0.704446f
c25 1378 0 1.51121f
c26 1375 0 3.02645f
c27 1368 0 2.52239f
c28 1356 0 0.134488f
c29 1352 0 0.12663f
c30 1348 0 0.116276f
c31 1341 0 0.109826f
c32 1327 0 0.0798089f
c33 1325 0 0.381351f
c34 1320 0 3.22019f
c35 1316 0 1.34339f
c36 1314 0 0.355086f
c37 1309 0 2.45483f
c38 1300 0 0.625743f
c39 1299 0 0.0863041f
c40 1298 0 2.33762f
c41 1294 0 1.00747f
c42 1292 0 0.105865f
c43 1256 0 9.87121f
c44 1255 0 9.76182f
c45 1075 0 0.156111f
c46 1057 0 0.383529f
c47 1040 0 0.160097f
c48 1038 0 0.292349f
c49 1034 0 0.709976f
c50 1029 0 2.87292f
c51 1025 0 0.197538f
c52 1022 0 0.515918f
c53 1021 0 0.279058f
c54 1017 0 0.145988f
c55 1015 0 8.67077f
c56 1014 0 3.92808f
c57 1012 0 0.0491072f
c58 1010 0 0.0277236f
c59 1009 0 0.0308602f
c60 1008 0 3.78775f
c61 1006 0 0.13666f
c62 1002 0 0.208025f
c63 992 0 0.09699f
c64 986 0 1.44596f
c65 983 0 0.723023f
c66 979 0 1.34453f
c67 971 0 1.16225e-19
c68 970 0 4.02348f
c69 965 0 4.07003f
c70 963 0 0.0513238f
c71 962 0 0.354077f
c72 958 0 0.298694f
c73 953 0 1.28917f
c74 950 0 0.0818467f
c75 948 0 3.25817f
c76 947 0 0.572765f
c77 944 0 0.344418f
c78 943 0 0.69664f
c79 939 0 0.0370871f
c80 938 0 0.743351f
c81 937 0 0.605952f
c82 933 0 0.0311567f
c83 932 0 0.258925f
c84 931 0 3.48671f
c85 922 0 1.42069f
c86 817 0 7.63153f
c87 809 0 7.25509f
c88 797 0 0.00989968f
c89 790 0 0.00989968f
c90 783 0 0.00989968f
c91 776 0 0.00989968f
c92 769 0 0.0234213f
c93 762 0 0.00828265f
c94 729 0 12.1708f
c95 727 0 19.7088f
c96 725 0 19.8924f
c97 723 0 19.9176f
c98 721 0 19.8924f
c99 719 0 19.8919f
c100 717 0 11.9299f
c101 691 0 0.115005f
c102 690 0 7.39221f
c103 687 0 0.104412f
c104 686 0 6.36995f
c105 17 0 0.152029f
c106 16 0 6.73982f
c107 7 0 0.152029f
c108 6 0 6.75738f
r109 1601 1604 0.00394881 
r110 1598 1599 0.956244 
r111 1591 1592 0.279231 
r112 1589 1591 0.266538 
r113 1582 1583 0.273962 
r114 1580 1582 0.261509 
r115 1569 1570 0.0087146 
r116 1568 1569 0.297691 
r117 1567 1568 0.0205664 
r118 1566 1567 0.0205664 
r119 1565 1566 0.0718954 
r120 1564 1565 0.00880174 
r121 1563 1564 0.0360784 
r122 1562 1563 0.0354684 
r123 1561 1562 0.013159 
r124 1560 1561 0.0256209 
r125 1555 1558 0.00305011 
r126 1554 1572 0.00304139 
r127 1570 1554 0.00174292 
r128 1552 1554 0.461538 
r129 1549 1569 0.6 
r130 1512 1568 0.6 
r131 1509 1512 0.4475 
r132 1506 1567 0.6 
r133 1503 1506 1.6625 
r134 1500 1566 0.6 
r135 1498 1500 1.6625 
r136 1496 1498 3.3275 
r137 1493 1565 0.545455 
r138 1490 1493 0.4025 
r139 1487 1564 0.545455 
r140 1484 1487 1.63 
r141 1481 1563 0.75 
r142 1478 1481 0.1575 
r143 1475 1562 0.75 
r144 1472 1475 1.1525 
r145 1469 1561 0.5 
r146 1466 1469 1.455 
r147 1463 1558 0.461538 
r148 1458 1598 0.2 
r149 1454 1606 0.0039415 
r150 1604 1454 0.467422 
r151 1452 1454 0.5 
r152 1450 1452 0.181 
r153 1447 1450 0.17 
r154 1447 1570 1.5 
r155 1444 1445 0.5457 
r156 1443 1444 0.2439 
r157 1442 1458 0.0528252 
r158 1442 1445 0.0966 
r159 1599 1438 0.698216 
r160 1436 1438 0.2 
r161 1436 1440 0.0136564 
r162 1592 1435 0.279231 
r163 1435 1433 0.279231 
r164 1433 1431 0.279231 
r165 1431 1429 0.266538 
r166 1427 1429 1.5 
r167 1427 1431 1.5 
r168 1427 1433 1.5 
r169 1427 1435 1.5 
r170 1427 1436 0.0314855 
r171 1426 1427 0.0601494 
r172 1583 1425 0.273962 
r173 1425 1423 0.273962 
r174 1423 1421 0.273962 
r175 1421 1419 0.261509 
r176 1417 1419 1.5 
r177 1417 1421 1.5 
r178 1417 1423 1.5 
r179 1417 1425 1.5 
r180 1417 1426 0.0634357 
r181 1577 1416 0.000747664 
r182 1414 1416 0.2 
r183 1414 1417 0.0334274 
r184 1411 1414 0.01361 
r185 1405 1591 1.5 
r186 1405 1589 1.5 
r187 1405 1592 1.5 
r188 1403 1405 0.0694058 
r189 1397 1582 1.5 
r190 1397 1580 1.5 
r191 1397 1403 0.0805639 
r192 1397 1583 1.5 
r193 1393 1575 0.2 
r194 1393 1397 0.0404834 
r195 1390 1393 0.0165962 
r196 1389 1458 0.0245381 
r197 1389 1405 0.0330312 
r198 1386 1604 0.5 
r199 1383 1386 0.181 
r200 1381 1560 0.0183007 
r201 1558 1381 0.00174292 
r202 1379 1381 1.5 
r203 1379 1383 0.17 
r204 1378 1443 0.5048 
r205 1354 1356 0.12 
r206 1350 1352 0.105714 
r207 1346 1348 0.0547368 
r208 1545 1339 0.1864 
r209 1324 1327 0.0446983 
r210 1324 1325 0.492857 
r211 1317 1356 0.02 
r212 1316 1354 0.02 
r213 1315 1352 0.02 
r214 1315 1316 2.35571 
r215 1314 1350 0.02 
r216 1313 1346 0.02 
r217 1313 1314 0.442857 
r218 1306 1549 4.21288 
r219 1300 1302 0.0108889 
r220 1298 1306 0.0456264 
r221 1298 1299 2.11789 
r222 1293 1300 0.02 
r223 1293 1294 1.1725 
r224 1292 1299 0.0446983 
r225 1302 1291 0.104301 
r226 1291 1292 0.177895 
r227 1256 1339 0.0784 
r228 1255 1545 0.2648 
r229 1254 1545 0.2664 
r230 1253 1545 0.2664 
r231 1071 1341 6 
r232 1068 1083 1.5 
r233 1061 1062 0.7505 
r234 1040 1339 3 
r235 1378 1039 0.0517792 
r236 1039 1040 3 
r237 1038 1083 0.000130933 
r238 1445 1038 1.5 
r239 1341 1036 0.000842105 
r240 1444 1036 6 
r241 1327 1034 1.54429 
r242 1443 1034 6 
r243 1031 1075 0.0263158 
r244 1348 1031 6 
r245 1325 1029 6 
r246 1320 1026 4.35429 
r247 1026 1496 6 
r248 1077 1025 0.06 
r249 1320 1025 6 
r250 1317 1022 0.787143 
r251 1022 1062 6 
r252 1309 1021 6 
r253 1309 1018 3.395 
r254 1018 1061 6 
r255 1057 1017 0.0621053 
r256 1560 1017 2 
r257 1015 1068 0.175309 
r258 1014 1071 0.077 
r259 1013 1029 3.90857 
r260 1011 1071 2.0625 
r261 1011 1012 0.0149881 
r262 1008 1062 0.6265 
r263 1008 1009 0.0132241 
r264 1004 1006 0.137143 
r265 1000 1021 0.175 
r266 999 1002 0.1525 
r267 999 1000 0.02 
r268 992 1061 0.563 
r269 991 1552 0.526 
r270 991 1015 0.0447005 
r271 990 1552 2.122 
r272 990 1014 0.0446983 
r273 985 1012 0.0313149 
r274 985 986 1.51 
r275 984 1010 0.0134463 
r276 983 1012 0.0149881 
r277 983 984 0.397 
r278 978 1010 0.0342301 
r279 978 979 1.66456 
r280 971 975 1.40842 
r281 970 1013 0.046046 
r282 970 975 3.10842 
r283 965 1077 0.02 
r284 964 965 4.40571 
r285 962 964 0.0449572 
r286 962 963 0.49875 
r287 957 963 0.0446983 
r288 957 958 0.27625 
r289 952 1006 0.02 
r290 952 953 1.215 
r291 949 1009 0.0132241 
r292 949 950 1.244 
r293 948 1010 0.0134463 
r294 948 950 0.531 
r295 947 1004 0.02 
r296 946 1009 0.0346762 
r297 946 947 1.12571 
r298 943 944 0.81913 
r299 942 943 0.478261 
r300 938 942 0.0446983 
r301 938 939 1.61217 
r302 936 939 0.0446983 
r303 936 937 1.64696 
r304 932 937 0.0446983 
r305 932 933 0.526956 
r306 931 1075 0.02 
r307 930 933 0.0447246 
r308 930 931 4.35 
r309 921 1002 0.02 
r310 921 922 1.3925 
r311 917 1463 2.122 
r312 917 992 0.0446983 
r313 820 817 0.159252 
r314 817 827 0.159252 
r315 809 817 0.159252 
r316 1577 758 0.2 
r317 817 758 0.0391734 
r318 741 817 0.0397569 
r319 731 820 0.0829907 
r320 817 731 0.0291589 
r321 1599 731 0.1 
r322 762 729 0.793846 
r323 1589 729 1.5 
r324 769 727 0.55145 
r325 1591 727 1.5 
r326 776 725 0.55145 
r327 1592 725 1.5 
r328 783 723 0.55145 
r329 1435 723 1.5 
r330 790 721 0.55145 
r331 1433 721 1.5 
r332 797 719 0.55145 
r333 1431 719 1.5 
r334 804 717 0.793846 
r335 1429 717 1.5 
r336 715 762 0.842637 
r337 1580 715 1.5 
r338 713 769 0.585344 
r339 1582 713 1.5 
r340 711 776 0.585344 
r341 1583 711 1.5 
r342 709 783 0.585344 
r343 1425 709 1.5 
r344 707 790 0.585344 
r345 1423 707 1.5 
r346 705 797 0.585344 
r347 1421 705 1.5 
r348 703 804 0.842637 
r349 1419 703 1.5 
r350 698 1577 1.79477 
r351 1575 698 0.000373832 
r352 698 741 0.2 
r353 697 827 0.73271 
r354 696 809 0.737944 
r355 695 817 0.73271 
r356 694 817 0.737944 
r357 691 695 0.0451326 
r358 691 817 2.504 
r359 690 697 0.0451326 
r360 690 817 2.44889 
r361 687 694 0.045921 
r362 687 817 2.687 
r363 686 696 0.045921 
r364 686 817 2.885 
r365 324 1375 0.0526456 
r366 1371 324 0.0552365 
r367 1426 324 0.00227273 
r368 322 1368 0.0620926 
r369 1364 322 0.0688218 
r370 1403 322 0.0025 
r371 1256 17 0.0447329 
r372 17 1545 1.51848 
r373 16 1255 0.0447329 
r374 16 1545 1.51162 
r375 1254 7 0.0447329 
r376 7 1545 1.51848 
r377 6 1253 0.0447329 
r378 6 1545 1.51162 
.ends

.subckt PM_PC3B25EU%U32_U1_U6_drain 5 30 70
c0 70 0 0.093269f
c1 66 0 0.48528f
c2 60 0 0.145494f
c3 52 0 16.1072f
c4 50 0 0.652543f
c5 45 0 2.03927f
c6 43 0 0.764346f
c7 40 0 0.385069f
c8 37 0 0.53121f
c9 36 0 0.134599f
c10 31 0 1.28596f
c11 30 0 4.09112e-19
c12 13 0 0.424401f
c13 12 0 0.611797f
c14 9 0 0.0269819f
c15 5 0 1.54089f
r16 66 70 52.3333 
r17 58 60 0.128571 
r18 55 56 6 
r19 73 52 2.93333 
r20 50 52 6 
r21 50 55 0.848 
r22 47 60 0.02 
r23 44 58 0.02 
r24 44 45 2.70571 
r25 42 43 1.24286 
r26 41 56 0.0221368 
r27 40 42 0.0448488 
r28 40 41 0.529032 
r29 66 37 2.1393 
r30 36 56 0.0225652 
r31 36 37 0.695873 
r32 31 43 0.0449572 
r33 31 30 1.34625 
r34 47 13 0.645714 
r35 13 73 6 
r36 45 12 6 
r37 9 12 0.611429 
r38 4 9 0.0414583 
r39 4 5 1.1 
.ends

.subckt PM_PC3B25EU%VSS 784 818 841 853 865 871 876 889 891 896
c0 896 0 91.6354f
c1 889 0 57.4591f
c2 874 0 2.37405f
c3 871 0 0.00382406f
c4 868 0 1.19975f
c5 865 0 0.00233123f
c6 862 0 0.833451f
c7 853 0 0.00261863f
c8 850 0 0.688212f
c9 837 0 1.88699f
c10 830 0 17.8192f
c11 815 0 1.45963f
c12 795 0 25.1597f
c13 793 0 0.176781f
c14 792 0 0.0657505f
c15 791 0 7.22121f
c16 788 0 0.0372194f
c17 784 0 3.58845f
c18 781 0 0.525461f
c19 779 0 0.252265f
c20 778 0 0.575193f
c21 777 0 0.849085f
c22 773 0 10.8443f
c23 766 0 8.6701f
c24 764 0 0.254806f
c25 763 0 0.0967266f
c26 762 0 1.98656f
c27 636 0 2.62783f
c28 633 0 0.335701f
c29 629 0 2.47532f
c30 623 0 1.89381f
c31 621 0 0.390699f
c32 619 0 0.286258f
c33 616 0 26.8371f
c34 608 0 1.25022f
c35 602 0 2.98892f
c36 596 0 0.137389f
c37 595 0 2.5295f
c38 592 0 0.153863f
c39 591 0 3.15192f
c40 588 0 6.34069f
c41 538 0 0.162892f
c42 536 0 0.72248f
c43 534 0 0.201212f
c44 509 0 2.94295f
c45 495 0 3.05881f
c46 493 0 0.031054f
c47 490 0 7.71781f
c48 489 0 0.207813f
c49 474 0 5.73463f
c50 471 0 3.29197f
r51 891 894 0.000703354 
r52 887 889 0.00318245 
r53 886 887 0.00119641 
r54 885 886 0.075334 
r55 884 885 0.0143968 
r56 883 884 0.0205384 
r57 882 883 0.176949 
r58 881 882 0.0838684 
r59 880 881 0.0521236 
r60 879 880 0.0864606 
r61 876 879 0.00438684 
r62 874 887 0.461538 
r63 868 871 1.28857 
r64 868 885 1.5 
r65 862 865 0.61 
r66 862 884 3 
r67 856 882 0.0517241 
r68 850 853 0.378947 
r69 850 881 2 
r70 844 886 0.428571 
r71 841 844 0.189 
r72 839 896 0.000702051 
r73 894 839 0.0832563 
r74 837 839 0.131579 
r75 837 841 0.013 
r76 834 835 0.56934 
r77 833 834 1.12447 
r78 830 833 0.628223 
r79 830 883 0.3 
r80 826 827 0.8252 
r81 821 879 0.428571 
r82 818 821 0.189 
r83 815 818 0.013 
r84 815 894 0.131579 
r85 791 856 2.9955 
r86 791 792 0.0338756 
r87 788 856 2.771 
r88 787 793 0.0338756 
r89 786 792 0.0338756 
r90 784 860 2.59036 
r91 858 784 1.07807 
r92 783 793 0.00880368 
r93 783 784 0.958 
r94 782 792 0.00880368 
r95 782 784 0.986 
r96 778 781 0.061325 
r97 779 777 0.061325 
r98 776 810 3 
r99 784 776 1.9525 
r100 774 784 1.7305 
r101 773 793 0.0338756 
r102 773 776 0.7105 
r103 772 788 0.0448201 
r104 770 874 1.518 
r105 769 874 0.426 
r106 766 860 1.08482 
r107 764 858 1.06072 
r108 763 774 1.373 
r109 762 763 0.0448201 
r110 762 772 2.13041 
r111 827 640 0.24 
r112 638 640 0.056 
r113 636 801 3 
r114 774 633 3 
r115 640 629 0.0075 
r116 858 629 1 
r117 801 623 0.24 
r118 834 623 1.5 
r119 810 621 0.000888889 
r120 833 621 3 
r121 619 860 3 
r122 835 619 3 
r123 616 826 0.3066 
r124 616 880 0.1 
r125 615 633 0.0005 
r126 826 615 3 
r127 778 611 0.0377176 
r128 779 611 0.0683804 
r129 795 611 1 
r130 609 795 0.9618 
r131 609 638 0.02 
r132 608 787 0.5005 
r133 770 608 0.0446983 
r134 607 636 0.830244 
r135 606 636 0.76878 
r136 601 602 1.56095 
r137 596 607 0.0448242 
r138 595 602 0.0447675 
r139 595 596 1.32889 
r140 592 606 0.0446983 
r141 592 593 0.745366 
r142 591 601 0.0447067 
r143 591 593 0.713171 
r144 588 786 0.5005 
r145 588 769 0.0446983 
r146 537 538 0.147619 
r147 533 534 0.14988 
r148 766 533 0.0380723 
r149 530 532 0.143333 
r150 764 529 0.0385542 
r151 527 529 0.14506 
r152 784 526 0.159 
r153 509 784 0.159 
r154 508 538 0.02 
r155 508 526 1.247 
r156 507 534 0.02 
r157 507 509 1.243 
r158 784 506 0.192 
r159 504 784 0.192 
r160 503 504 0.342 
r161 784 503 0.192 
r162 501 784 0.192 
r163 500 501 0.342 
r164 784 500 0.192 
r165 498 784 0.192 
r166 497 498 0.342 
r167 784 497 0.192 
r168 495 784 0.192 
r169 494 537 0.02 
r170 494 506 1.214 
r171 493 536 0.04 
r172 493 495 0.243 
r173 491 533 0.02 
r174 491 536 0.938734 
r175 490 781 4.80524 
r176 490 537 0.0380952 
r177 489 777 0.555238 
r178 489 532 0.0380952 
r179 784 485 0.159 
r180 483 784 0.159 
r181 482 483 0.408 
r182 784 482 0.159 
r183 480 784 0.159 
r184 479 480 0.408 
r185 784 479 0.159 
r186 477 784 0.159 
r187 476 477 0.408 
r188 784 476 0.159 
r189 474 784 0.159 
r190 473 532 0.02 
r191 473 485 1.247 
r192 472 529 0.02 
r193 472 474 1.243 
r194 471 530 0.02 
r195 470 527 0.02 
r196 470 471 4.69271 
.ends

.subckt PM_PC3B25EU%U29_U42_r1 53 58 66
c0 133 0 0.256487f
c1 129 0 0.130655f
c2 123 0 2.82759f
c3 113 0 0.470345f
c4 112 0 0.306614f
c5 110 0 0.273588f
c6 108 0 0.0794715f
c7 107 0 0.300614f
c8 104 0 6.54293f
c9 99 0 0.158114f
c10 98 0 9.20635f
c11 97 0 0.57191f
c12 96 0 0.307428f
c13 93 0 0.139556f
c14 87 0 0.0902878f
c15 79 0 0.171215f
c16 73 0 0.680566f
c17 67 0 0.30667f
c18 66 0 0.278026f
c19 61 0 0.163718f
c20 60 0 0.551041f
c21 58 0 3.10391f
c22 53 0 3.10221f
r23 115 133 0.00341463 
r24 113 115 3 
r25 111 113 0.05061 
r26 111 112 0.662857 
r27 110 113 0.05061 
r28 109 110 0.202353 
r29 107 112 0.0446983 
r30 107 108 0.352857 
r31 104 129 6 
r32 102 108 0.0448488 
r33 102 104 6.78194 
r34 98 109 0.0487211 
r35 98 99 10.993 
r36 97 99 0.0614275 
r37 125 96 0.0521951 
r38 95 97 0.13485 
r39 95 96 3 
r40 91 129 0.130323 
r41 90 93 0.153548 
r42 90 91 0.02 
r43 87 123 6 
r44 85 93 0.02 
r45 85 87 0.132903 
r46 84 123 3.99613 
r47 83 84 0.026898 
r48 79 83 0.10143 
r49 79 66 0.106667 
r50 61 73 1.85294 
r51 60 67 1.85294 
r52 55 61 3.88985 
r53 55 58 183.96 
r54 50 60 3.88985 
r55 50 53 183.96 
r56 73 27 0.00142683 
r57 133 27 3 
r58 67 9 0.00142683 
r59 125 9 3 
.ends

.subckt PM_PC3B25EU%VSSO 414 427 451 453 496 849 853 860 891 898 910 924 926
+ 929 932 936 943 949 953 960 966 970 975 984 990 996 1002 1011 1017 1023 1029
+ 1038 1044 1056 1103 1108 1113 1119
c0 1119 0 33.1113f
c1 1106 0 2.21893f
c2 1103 0 31.4955f
c3 1089 0 7.93553f
c4 1087 0 6.95866f
c5 1082 0 6.95923f
c6 1077 0 6.96014f
c7 1072 0 6.9613f
c8 1067 0 6.96239f
c9 1056 0 0.00391448f
c10 1051 0 8.95235f
c11 1044 0 0.342413f
c12 1029 0 1.26648f
c13 1023 0 1.20098f
c14 1017 0 1.36598f
c15 1002 0 1.39169f
c16 996 0 1.35654f
c17 990 0 1.35671f
c18 975 0 2.01163f
c19 970 0 3.00235f
c20 966 0 1.86331f
c21 953 0 1.63265f
c22 949 0 1.3809f
c23 936 0 2.02747f
c24 932 0 1.55543f
c25 929 0 1.69069f
c26 926 0 0.00104056f
c27 924 0 8.25608e-19
c28 922 0 8.96457f
c29 908 0 7.86011f
c30 904 0 1.27875f
c31 894 0 1.6526f
c32 891 0 58.2592f
c33 868 0 5.73005f
c34 856 0 1.33998f
c35 853 0 10.6383f
c36 846 0 0.209794f
c37 839 0 0.112919f
c38 833 0 3.97964f
c39 830 0 5.09055f
c40 827 0 0.132963f
c41 826 0 0.0542123f
c42 825 0 0.883566f
c43 823 0 0.0594046f
c44 822 0 0.341819f
c45 802 0 15.9077f
c46 801 0 1.18534f
c47 795 0 0.581783f
c48 791 0 0.708327f
c49 789 0 0.198357f
c50 788 0 3.24918f
c51 786 0 0.383003f
c52 785 0 0.713156f
c53 784 0 0.303464f
c54 783 0 3.27963f
c55 782 0 0.383249f
c56 781 0 2.11947f
c57 779 0 0.0515814f
c58 778 0 0.253313f
c59 777 0 0.0410224f
c60 742 0 0.122915f
c61 741 0 8.89232f
c62 708 0 0.264591f
c63 704 0 7.03694f
c64 703 0 0.0327562f
c65 699 0 0.146306f
c66 502 0 0.148172f
c67 496 0 0.446479f
c68 477 0 3.96985f
c69 475 0 0.329871f
c70 473 0 0.228551f
c71 470 0 0.346471f
c72 453 0 1.19565f
c73 451 0 0.349664f
c74 450 0 0.20687f
c75 447 0 0.0580049f
c76 446 0 1.12228f
c77 445 0 0.418619f
c78 441 0 0.0543811f
c79 440 0 0.739387f
c80 439 0 0.215955f
c81 432 0 0.0141979f
c82 431 0 0.638952f
c83 427 0 0.846433f
c84 414 0 0.114597f
c85 406 0 0.0437187f
c86 405 0 0.143533f
c87 282 0 14.0334f
c88 232 0 14.0338f
c89 182 0 14.0346f
c90 132 0 14.0362f
c91 82 0 14.0378f
c92 10 0 0.146306f
r93 1117 1119 0.00282778 
r94 1116 1117 0.355444 
r95 1113 1116 0.00283333 
r96 1108 1110 0.0094291 
r97 1106 1108 0.0126704 
r98 1100 1101 0.111123 
r99 1099 1100 0.0327273 
r100 1098 1099 0.0259893 
r101 1097 1098 0.0396791 
r102 1096 1097 0.0383957 
r103 1095 1096 0.0347594 
r104 1094 1095 0.0808556 
r105 1093 1094 0.0253476 
r106 1061 1062 0.0140639 
r107 1055 1056 0.0126606 
r108 1089 1053 0.0113761 
r109 1051 1053 0.0638298 
r110 1048 1101 2 
r111 1044 1048 0.000380952 
r112 1032 1100 0.6 
r113 1029 1032 0.46 
r114 1026 1099 0.6 
r115 1023 1026 0.46 
r116 1020 1098 0.6 
r117 1017 1020 0.285 
r118 1005 1097 0.6 
r119 1002 1005 0.32 
r120 999 1096 0.6 
r121 996 999 0.36 
r122 993 1095 0.6 
r123 990 993 0.37 
r124 978 1094 0.6 
r125 975 978 0.9975 
r126 972 1093 0.6 
r127 970 972 0.995 
r128 924 1055 0.013211 
r129 1051 924 0.000917431 
r130 922 924 0.000913242 
r131 922 1061 0.0638298 
r132 909 910 0.02 
r133 908 1061 0.0113242 
r134 906 908 0.0327869 
r135 906 909 0.0166784 
r136 904 906 0.029258 
r137 901 1117 0.357143 
r138 898 901 0.21 
r139 896 1103 0.00544385 
r140 1101 896 0.0345455 
r141 894 896 1 
r142 894 898 0.445 
r143 889 891 0.00612761 
r144 889 1089 0.0327869 
r145 1038 887 0.130435 
r146 887 1087 0.00301741 
r147 1084 887 0.00301741 
r148 885 887 0.0266667 
r149 885 889 0.0287785 
r150 1011 884 0.130435 
r151 884 1082 0.00301741 
r152 1079 884 0.00301741 
r153 882 884 0.0266667 
r154 882 885 0.0242129 
r155 984 881 0.130435 
r156 881 1077 0.00301741 
r157 1074 881 0.00301741 
r158 879 881 0.0266667 
r159 879 882 0.0242129 
r160 878 879 0.000615582 
r161 960 877 0.130435 
r162 877 1072 0.00301741 
r163 1069 877 0.00301741 
r164 875 877 0.0266667 
r165 875 878 0.0235973 
r166 943 874 0.130435 
r167 874 1067 0.00301741 
r168 1064 874 0.00301741 
r169 872 874 0.0266667 
r170 872 875 0.0242129 
r171 871 904 0.02 
r172 871 872 0.0277012 
r173 868 1110 0.6 
r174 909 866 0.429445 
r175 866 868 2.21804 
r176 863 1116 0.357143 
r177 860 863 0.21 
r178 858 1112 0.154254 
r179 1110 858 0.0300552 
r180 856 858 1 
r181 856 860 0.445 
r182 845 1093 0.00823529 
r183 845 846 0.00148841 
r184 839 842 0.0536842 
r185 832 846 0.0914723 
r186 832 833 4.72 
r187 829 839 0.02 
r188 829 830 6.40105 
r189 826 827 0.16125 
r190 825 826 0.044815 
r191 824 825 1.17829 
r192 822 824 0.0447012 
r193 822 823 0.340282 
r194 966 821 0.4175 
r195 819 821 0.6 
r196 953 818 0.3425 
r197 816 818 0.6 
r198 816 819 0.0368449 
r199 949 815 0.365 
r200 813 815 0.6 
r201 813 816 0.0490909 
r202 936 812 0.194286 
r203 810 812 0.6 
r204 810 813 0.0233155 
r205 932 809 0.3175 
r206 807 809 0.6 
r207 807 810 0.0203209 
r208 929 806 0.96 
r209 804 806 0.666667 
r210 804 807 0.0213904 
r211 803 1106 0.0200074 
r212 803 804 0.0687166 
r213 802 846 0.00148841 
r214 802 819 0.00636364 
r215 801 823 0.0455141 
r216 1112 801 2.98571 
r217 795 839 0.02 
r218 795 796 0.746316 
r219 793 1056 0.230275 
r220 791 1051 0.210275 
r221 787 926 0.229041 
r222 787 788 0.0863581 
r223 785 922 0.209132 
r224 785 786 0.0863581 
r225 793 783 0.0861375 
r226 783 784 0.132033 
r227 791 782 0.0861375 
r228 780 789 0.0334121 
r229 780 781 2.91742 
r230 779 789 0.0334121 
r231 842 778 3 
r232 777 781 0.0417212 
r233 777 778 0.109474 
r234 742 924 0.128 
r235 741 784 0.0473573 
r236 741 924 0.126 
r237 708 742 0.0473573 
r238 788 708 0.132033 
r239 704 924 0.126 
r240 703 970 1.78 
r241 702 929 1.1475 
r242 700 924 0.128 
r243 699 700 0.0473573 
r244 699 786 0.250407 
r245 502 479 0.00693642 
r246 830 479 6 
r247 833 477 6 
r248 827 475 6 
r249 496 473 0.0610526 
r250 796 473 2 
r251 471 477 4.31429 
r252 702 470 0.0338756 
r253 469 475 0.3875 
r254 452 502 0.0225434 
r255 452 453 1.14783 
r256 450 451 0.293333 
r257 446 450 0.0446983 
r258 446 447 2 
r259 445 447 0.0446983 
r260 444 445 0.542667 
r261 440 444 0.0446983 
r262 440 441 0.964 
r263 703 439 0.0402087 
r264 438 441 0.0446983 
r265 438 439 0.364 
r266 431 471 0.0446983 
r267 431 432 0.771429 
r268 426 432 0.0449572 
r269 426 427 0.9825 
r270 413 470 0.00880368 
r271 413 414 0.1375 
r272 407 779 0.153333 
r273 406 469 0.0462682 
r274 405 407 0.0469364 
r275 405 406 0.150112 
r276 316 853 0.0419737 
r277 849 316 0.0413851 
r278 878 316 0.00128205 
r279 1038 282 0.00313778 
r280 1087 282 0.0652174 
r281 1053 271 0.0141284 
r282 271 1055 0.0652174 
r283 1011 232 0.00313778 
r284 1082 232 0.0652174 
r285 222 1038 0.00313778 
r286 1084 222 0.0652174 
r287 984 182 0.00313778 
r288 1077 182 0.0652174 
r289 172 1011 0.00313778 
r290 1079 172 0.0652174 
r291 960 132 0.00313778 
r292 1072 132 0.0652174 
r293 122 984 0.00313778 
r294 1074 122 0.0652174 
r295 943 82 0.00313778 
r296 1067 82 0.0652174 
r297 72 960 0.00313778 
r298 1069 72 0.0652174 
r299 32 926 0.0126027 
r300 924 32 0.0131507 
r301 1062 32 0.0652174 
r302 22 943 0.00313778 
r303 1064 22 0.0652174 
r304 10 782 0.250407 
r305 10 704 0.0473573 
.ends

.subckt PM_PC3B25EU%U30_ngate 106 115 122 129 136 173 175 193 235 240 245 251
c0 321 0 0.464047f
c1 313 0 16.5685f
c2 306 0 0.536341f
c3 303 0 0.229894f
c4 302 0 0.68928f
c5 298 0 1.52077f
c6 297 0 0.701801f
c7 294 0 0.0674234f
c8 293 0 1.52121f
c9 291 0 0.177304f
c10 289 0 5.49003f
c11 285 0 0.111672f
c12 279 0 0.715344f
c13 274 0 2.99086f
c14 258 0 0.536058f
c15 255 0 0.609346f