* File: pc3o01.dist.sp.pex
* Created: Sun Jul  4 12:35:39 2010
* Program "Calibre xRC"
* Version "v2008.4_19.14"
* Nominal Temperature: 27C
* Circuit Temperature: 27C
* 
.subckt PM_PC3O01%VSS 786 821 874 880 891 900 921 927
c0 927 0 89.395f
c1 905 0 0.180444f
c2 900 0 47.1525f
c3 890 0 79.7681f
c4 885 0 1.93193f
c5 880 0 0.00260083f
c6 877 0 1.06717f
c7 874 0 0.158224f
c8 835 0 19.0435f
c9 834 0 3.98597f
c10 818 0 1.87154f
c11 815 0 0.270234f
c12 812 0 1.329f
c13 809 0 0.204112f
c14 804 0 14.7093f
c15 801 0 2.40235f
c16 793 0 24.3388f
c17 783 0 1.45065f
c18 758 0 24.8176f
c19 732 0 2.40893f
c20 731 0 0.0769607f
c21 729 0 0.0432851f
c22 728 0 1.91294f
c23 725 0 0.0232103f
c24 722 0 0.146915f
c25 721 0 0.0916283f
c26 720 0 2.67751f
c27 718 0 2.03669f
c28 715 0 6.91954f
c29 714 0 1.82113f
c30 710 0 0.135881f
c31 709 0 2.46779f
c32 708 0 0.117466f
c33 707 0 2.24284f
c34 705 0 4.25213f
c35 704 0 2.30016f
c36 702 0 0.576697f
c37 701 0 0.0389222f
c38 700 0 1.74843f
c39 699 0 1.67316f
c40 697 0 8.71506f
c41 694 0 0.194013f
c42 605 0 0.162892f
c43 603 0 0.721903f
c44 601 0 0.204021f
c45 576 0 2.94565f
c46 562 0 3.0753f
c47 560 0 0.031054f
c48 557 0 3.11758f
c49 556 0 3.12812f
c50 555 0 0.161087f
c51 540 0 4.37629f
c52 537 0 3.05571f
r53 925 927 0.000702051 
r54 924 925 0.0832563 
r55 921 924 0.000703354 
r56 897 898 0.0486142 
r57 896 897 0.12339 
r58 895 896 0.137388 
r59 888 911 3 
r60 885 907 3 
r61 877 880 1.28857 
r62 877 897 1.5 
r63 872 874 0.6665 
r64 872 896 0.0431655 
r65 874 856 2.59036 
r66 852 854 1 
r67 852 874 1.07807 
r68 837 905 3 
r69 835 837 1.2605 
r70 834 890 0.0175768 
r71 834 837 1.0165 
r72 825 900 0.00437886 
r73 898 825 0.110269 
r74 823 825 0.428571 
r75 821 823 0.189 
r76 818 821 0.013 
r77 818 925 0.131579 
r78 856 815 3 
r79 813 815 3 
r80 907 812 0.231111 
r81 810 812 1.5 
r82 810 813 0.572589 
r83 911 809 0.000888889 
r84 807 809 3 
r85 807 810 1.12122 
r86 804 807 0.628223 
r87 804 898 0.3 
r88 801 854 0.00750563 
r89 918 801 0.056042 
r90 799 801 0.24 
r91 798 905 0.0005 
r92 796 798 3 
r93 796 799 0.8265 
r94 793 796 0.3056 
r95 793 895 0.125 
r96 790 895 0.09001 
r97 891 790 0.00438684 
r98 788 790 0.428571 
r99 786 788 0.189 
r100 783 786 0.013 
r101 783 924 0.131579 
r102 758 760 1 
r103 757 918 0.020015 
r104 757 758 0.9634 
r105 732 888 1.291 
r106 730 888 0.079 
r107 730 731 0.0338756 
r108 728 874 1.3975 
r109 728 729 0.0338756 
r110 727 885 0.835122 
r111 726 885 0.56878 
r112 724 872 0.424 
r113 724 725 0.0175768 
r114 722 760 0.078239 
r115 721 835 0.087 
r116 720 732 0.0446983 
r117 719 720 1.944 
r118 717 718 1.37048 
r119 716 729 0.0338756 
r120 715 719 0.0446983 
r121 715 716 1.37 
r122 714 731 0.00880368 
r123 713 729 0.00880368 
r124 713 714 1.944 
r125 710 727 0.0448242 
r126 710 711 0.678222 
r127 709 718 0.0447675 
r128 709 711 0.650667 
r129 708 726 0.0446983 
r130 707 717 0.0447067 
r131 707 708 1.45854 
r132 706 890 0.0175768 
r133 705 731 0.0338756 
r134 705 706 2.488 
r135 704 890 0.0270064 
r136 703 725 0.0270064 
r137 703 704 4.09263 
r138 722 702 0.0577061 
r139 700 725 0.0175768 
r140 700 701 2.364 
r141 699 721 0.0446983 
r142 698 701 0.0446983 
r143 698 699 1.944 
r144 697 856 1.08482 
r145 694 852 1.06072 
r146 604 605 0.147619 
r147 600 601 0.14988 
r148 697 600 0.0380723 
r149 597 599 0.143333 
r150 694 596 0.0385542 
r151 594 596 0.14506 
r152 874 593 0.159 
r153 576 874 0.159 
r154 575 605 0.02 
r155 575 593 1.247 
r156 574 601 0.02 
r157 574 576 1.243 
r158 874 573 0.192 
r159 571 874 0.192 
r160 570 571 0.342 
r161 874 570 0.192 
r162 568 874 0.192 
r163 567 568 0.342 
r164 874 567 0.192 
r165 565 874 0.192 
r166 564 565 0.342 
r167 874 564 0.192 
r168 562 874 0.192 
r169 561 604 0.02 
r170 561 573 1.214 
r171 560 603 0.04 
r172 560 562 0.243 
r173 558 600 0.02 
r174 558 603 0.938734 
r175 760 557 0.102486 
r176 556 604 0.0380952 
r177 556 557 4.80524 
r178 555 702 0.555238 
r179 555 599 0.0380952 
r180 874 551 0.159 
r181 549 874 0.159 
r182 548 549 0.408 
r183 874 548 0.159 
r184 546 874 0.159 
r185 545 546 0.408 
r186 874 545 0.159 
r187 543 874 0.159 
r188 542 543 0.408 
r189 874 542 0.159 
r190 540 874 0.159 
r191 539 599 0.02 
r192 539 551 1.247 
r193 538 596 0.02 
r194 538 540 1.243 
r195 537 597 0.02 
r196 536 594 0.02 
r197 536 537 4.69271 
.ends

.subckt PM_PC3O01%VDDO 892 897 904 911 918 925 932 939 1125 1128 1133 1138 1197
+ 1201 1204 1209 1215 1222 1243 1271 1297 1305 1315 1335 1386 1394 1443 1448
c0 1448 0 20.5533f
c1 1439 0 0.149549f
c2 1430 0 0.336998f
c3 1427 0 4.70941f
c4 1420 0 0.193678f
c5 1411 0 6.80765f
c6 1402 0 8.85211f
c7 1397 0 7.50311f
c8 1394 0 44.4985f
c9 1383 0 2.98997f
c10 1335 0 0.0192351f
c11 1329 0 11.5137f
c12 1315 0 2.74753f
c13 1312 0 3.06976f
c14 1294 0 0.505057f
c15 1281 0 0.101711f
c16 1277 0 0.206145f
c17 1275 0 29.8052f
c18 1274 0 1.97227f
c19 1271 0 62.7338f
c20 1270 0 2.02299f
c21 1221 0 50.711f
c22 1212 0 0.678684f
c23 1209 0 3.02759f
c24 1201 0 2.50056f
c25 1196 0 0.38718f
c26 1187 0 1.97376f
c27 1185 0 0.26257f
c28 1172 0 2.09673f
c29 1170 0 0.519544f
c30 1161 0 2.03641f
c31 1159 0 1.85694f
c32 1155 0 7.59822f
c33 1153 0 4.59836f
c34 1149 0 0.0193183f
c35 1148 0 4.06206f
c36 1141 0 0.0926813f
c37 1140 0 0.0602345f
c38 1139 0 0.115552f
c39 1137 0 0.290708f
c40 1133 0 4.09112e-19
c41 1132 0 2.58383f
c42 1128 0 1.44145f
c43 1125 0 0.488025f
c44 1123 0 0.0460012f
c45 1122 0 0.135911f
c46 1092 0 10.2691f
c47 1091 0 9.76182f
c48 944 0 7.19201f
c49 939 0 0.0208826f
c50 932 0 0.0231661f
c51 925 0 0.0106455f
c52 918 0 0.0106455f
c53 911 0 0.0106455f
c54 904 0 0.0106455f
c55 897 0 0.0093986f
c56 892 0 7.85341f
c57 864 0 11.8129f
c58 862 0 19.4159f
c59 860 0 19.4159f
c60 858 0 19.4447f
c61 856 0 19.4159f
c62 854 0 19.2494f
c63 852 0 11.7222f
c64 826 0 0.161029f
c65 825 0 6.58599f
c66 822 0 0.110304f
c67 821 0 6.16763f
c68 31 0 0.152029f
c69 30 0 6.704f
c70 21 0 0.152029f
c71 20 0 6.75738f
r72 1443 1446 0.00394881 
r73 1427 1428 0.951776 
r74 1413 1414 0.279231 
r75 1411 1413 0.266538 
r76 1404 1405 0.273962 
r77 1402 1404 0.261509 
r78 1398 1399 1.79477 
r79 1397 1398 0.000373832 
r80 1391 1392 0.458039 
r81 1390 1391 0.0988235 
r82 1389 1390 0.00174292 
r83 1386 1389 0.00305011 
r84 1385 1394 0.00304139 
r85 1392 1385 0.00174292 
r86 1383 1385 0.461538 
r87 1379 1430 1 
r88 1373 1376 0.1836 
r89 1370 1373 0.0028 
r90 1341 1439 3 
r91 1338 1341 0.2885 
r92 1338 1420 2 
r93 1335 1338 2.755 
r94 1327 1329 3.90065 
r95 1325 1327 6.71097 
r96 1320 1391 0.545455 
r97 1315 1320 1.5075 
r98 1312 1389 0.461538 
r99 1305 1427 0.2 
r100 1301 1448 0.0039415 
r101 1446 1301 0.467422 
r102 1299 1301 0.5 
r103 1297 1299 0.181 
r104 1294 1297 0.17 
r105 1294 1392 1.5 
r106 1430 1292 0.000100503 
r107 1290 1292 1 
r108 1420 1289 0.000233918 
r109 1439 1287 0.000299625 
r110 1285 1287 3 
r111 1285 1289 2 
r112 1285 1290 0.5433 
r113 1329 1284 2 
r114 1282 1284 2 
r115 1282 1285 0.2287 
r116 1373 1281 6 
r117 1279 1281 6 
r118 1279 1282 0.563 
r119 1376 1277 1.5 
r120 1275 1277 1.5 
r121 1275 1279 0.0036 
r122 1274 1305 0.0539366 
r123 1274 1290 0.099 
r124 1428 1270 0.741308 
r125 1268 1270 0.181818 
r126 1268 1271 0.0136564 
r127 1414 1267 0.279231 
r128 1267 1265 0.279231 
r129 1265 1263 0.279231 
r130 1263 1261 0.266538 
r131 1259 1261 1.5 
r132 1259 1263 1.5 
r133 1259 1265 1.5 
r134 1259 1267 1.5 
r135 1259 1268 0.0314855 
r136 1405 1257 0.273962 
r137 1257 1255 0.273962 
r138 1255 1253 0.273962 
r139 1253 1251 0.261509 
r140 1249 1251 1.5 
r141 1249 1253 1.5 
r142 1249 1255 1.5 
r143 1249 1257 1.5 
r144 1399 1248 0.000747664 
r145 1246 1248 0.2 
r146 1246 1249 0.0334274 
r147 1243 1246 0.01361 
r148 1237 1413 1.5 
r149 1237 1411 1.5 
r150 1237 1414 1.5 
r151 1235 1237 0.0694058 
r152 1229 1404 1.5 
r153 1229 1402 1.5 
r154 1229 1235 0.0805639 
r155 1229 1405 1.5 
r156 1225 1397 0.2 
r157 1225 1229 0.0404834 
r158 1222 1225 0.0165962 
r159 1221 1305 0.0234268 
r160 1221 1237 0.0330312 
r161 1217 1446 0.5 
r162 1215 1217 0.181 
r163 1212 1215 0.17 
r164 1212 1390 1.5 
r165 1207 1209 0.0526456 
r166 1204 1207 0.0552365 
r167 1196 1284 0.0625641 
r168 1185 1187 6 
r169 1184 1196 0.0564739 
r170 1184 1185 0.565161 
r171 1175 1327 6 
r172 1170 1172 6 
r173 1170 1175 0.742857 
r174 1166 1168 6 
r175 1164 1166 3.25857 
r176 1164 1325 6 
r177 1159 1161 3 
r178 1159 1164 0.562857 
r179 1156 1383 0.526 
r180 1155 1379 0.217284 
r181 1155 1156 0.0447005 
r182 1154 1383 2.122 
r183 1153 1341 0.0845 
r184 1153 1154 0.0446983 
r185 1152 1187 3.20516 
r186 1150 1172 4.30714 
r187 1148 1168 0.901 
r188 1148 1149 0.0149881 
r189 1147 1335 0.203 
r190 1147 1149 0.0149881 
r191 1146 1161 3.47273 
r192 1142 1312 2.122 
r193 1141 1168 2.076 
r194 1141 1142 0.0446983 
r195 1139 1152 0.0446983 
r196 1139 1140 0.125161 
r197 1137 1140 0.0664522 
r198 1137 1138 0.0466667 
r199 1132 1150 0.0448488 
r200 1132 1133 3.6271 
r201 1127 1149 0.0313149 
r202 1127 1128 1.51 
r203 1124 1125 0.21697 
r204 1123 1146 0.0446983 
r205 1122 1124 0.0446983 
r206 1122 1123 0.225455 
r207 1092 1376 0.0784 
r208 1091 1370 0.2648 
r209 1090 1370 0.2664 
r210 1089 1370 0.2664 
r211 944 892 0.159252 
r212 955 892 0.159252 
r213 892 962 0.159252 
r214 866 955 0.0829907 
r215 892 866 0.0291589 
r216 1428 866 0.1 
r217 897 864 0.793846 
r218 1411 864 1.5 
r219 904 862 0.55145 
r220 1413 862 1.5 
r221 911 860 0.55145 
r222 1414 860 1.5 
r223 918 858 0.55145 
r224 1267 858 1.5 
r225 925 856 0.55145 
r226 1265 856 1.5 
r227 932 854 0.55145 
r228 1263 854 1.5 
r229 939 852 0.793846 
r230 1261 852 1.5 
r231 850 897 0.842637 
r232 1402 850 1.5 
r233 848 904 0.585344 
r234 1404 848 1.5 
r235 846 911 0.585344 
r236 1405 846 1.5 
r237 844 918 0.585344 
r238 1257 844 1.5 
r239 842 925 0.585344 
r240 1255 842 1.5 
r241 840 932 0.585344 
r242 1253 840 1.5 
r243 838 939 0.842637 
r244 1251 838 1.5 
r245 892 836 0.0391734 
r246 1399 836 0.2 
r247 834 892 0.0397569 
r248 1398 834 0.2 
r249 832 962 0.73271 
r250 831 944 0.737944 
r251 830 892 0.73271 
r252 829 892 0.737944 
r253 826 830 0.0451326 
r254 826 892 2.504 
r255 825 832 0.0451326 
r256 825 892 2.44889 
r257 822 829 0.045921 
r258 822 892 2.687 
r259 821 831 0.045921 
r260 821 892 2.885 
r261 458 1259 0.0601494 
r262 1249 458 0.0634357 
r263 458 1207 0.00227273 
r264 457 1201 0.0620926 
r265 1197 457 0.0688218 
r266 1235 457 0.0025 
r267 1092 31 0.0447329 
r268 31 1370 1.51848 
r269 30 1091 0.0447329 
r270 30 1370 1.51162 
r271 1090 21 0.0447329 
r272 21 1370 1.51848 
r273 20 1089 0.0447329 
r274 20 1370 1.51162 
.ends

.subckt PM_PC3O01%VSSO 181 344 507 518 776 780 784 810 817 827 845 847 850 858
+ 871 877 885 896 906 913 916 963 966 972
c0 972 0 30.9916f
c1 963 0 33.2117f
c2 955 0 7.92742f
c3 953 0 6.972f
c4 947 0 6.97586f
c5 942 0 6.97726f
c6 936 0 6.97747f
c7 931 0 6.97641f
c8 913 0 0.00201294f
c9 908 0 8.95235f
c10 906 0 0.29997f
c11 885 0 1.3628f
c12 877 0 1.39344f
c13 858 0 0.981876f
c14 850 0 0.935156f
c15 847 0 0.00103901f
c16 845 0 8.25608e-19
c17 843 0 8.96457f
c18 823 0 1.66703f
c19 813 0 1.18846f
c20 810 0 65.164f
c21 790 0 7.85285f
c22 780 0 10.6706f
c23 773 0 0.187348f
c24 772 0 10.2215f
c25 765 0 0.468399f
c26 763 0 2.55394f
c27 756 0 0.708327f
c28 755 0 0.0914211f
c29 754 0 3.24686f
c30 752 0 0.383003f
c31 751 0 0.713156f
c32 750 0 3.25615f
c33 749 0 0.383249f
c34 686 0 8.73608f
c35 683 0 7.03694f
c36 679 0 0.146306f
c37 518 0 0.449362f
c38 422 0 14.0391f
c39 372 0 14.0356f
c40 259 0 14.0403f
c41 209 0 14.0401f
c42 46 0 14.0405f
c43 24 0 0.450651f
c44 23 0 0.146306f
c45 16 0 0.393075f
r46 970 972 0.00282778 
r47 969 970 0.355444 
r48 966 969 0.00283333 
r49 960 961 0.187647 
r50 959 960 0.0396791 
r51 924 925 0.0140639 
r52 921 922 0.0252406 
r53 920 921 0.0894118 
r54 912 913 0.0126606 
r55 955 910 0.0113761 
r56 908 910 0.0638298 
r57 903 906 0.0335135 
r58 903 961 2 
r59 890 960 0.6 
r60 885 890 0.285 
r61 882 959 0.6 
r62 877 882 0.32 
r63 863 922 0.6 
r64 858 863 0.34 
r65 855 921 0.6 
r66 850 855 0.34 
r67 845 912 0.013211 
r68 908 845 0.000917431 
r69 843 845 0.000913242 
r70 843 924 0.0638298 
r71 830 970 0.357143 
r72 827 830 0.21 
r73 825 963 0.00544385 
r74 961 825 0.124439 
r75 823 825 1 
r76 823 827 0.445 
r77 820 969 0.357143 
r78 817 820 0.21 
r79 815 920 0.017861 
r80 916 815 0.00545455 
r81 813 815 1 
r82 813 817 0.445 
r83 807 955 0.0327869 
r84 807 810 0.00612761 
r85 949 806 0.00301483 
r86 806 953 0.00301741 
r87 804 806 0.0266667 
r88 804 807 0.0287785 
r89 896 803 0.130435 
r90 803 947 0.00301741 
r91 944 803 0.00301741 
r92 801 803 0.0266667 
r93 801 804 0.0242129 
r94 938 800 0.00301483 
r95 800 942 0.00301741 
r96 798 800 0.0266667 
r97 798 801 0.0242129 
r98 797 798 0.000615582 
r99 871 796 0.130435 
r100 796 936 0.00301741 
r101 933 796 0.00301741 
r102 794 796 0.0266667 
r103 794 797 0.0235973 
r104 927 793 0.00301483 
r105 793 931 0.00301741 
r106 791 793 0.0266667 
r107 791 794 0.0242129 
r108 790 924 0.0113242 
r109 788 790 0.0327869 
r110 788 791 0.0288298 
r111 787 788 0.000179545 
r112 784 787 0.00595063 
r113 772 922 0.0450267 
r114 772 773 0.00169958 
r115 771 959 0.151551 
r116 771 773 0.00169958 
r117 763 765 6 
r118 762 773 0.0880724 
r119 762 763 4.0275 
r120 758 913 0.230275 
r121 756 908 0.210275 
r122 755 765 0.66125 
r123 753 847 0.229041 
r124 753 754 0.0863581 
r125 751 843 0.209132 
r126 751 752 0.0863581 
r127 758 750 0.0861375 
r128 756 749 0.0861375 
r129 686 845 0.126 
r130 683 845 0.126 
r131 682 845 0.128 
r132 681 845 0.128 
r133 679 681 0.0473573 
r134 679 752 0.250407 
r135 531 780 0.0419737 
r136 776 531 0.0413851 
r137 797 531 0.00128205 
r138 527 920 0.6 
r139 525 787 0.02 
r140 525 527 2.21804 
r141 518 755 0.0454315 
r142 806 507 0.130435 
r143 896 422 0.00313778 
r144 947 422 0.0652174 
r145 507 412 0.0031351 
r146 949 412 0.0652174 
r147 372 507 0.00314046 
r148 953 372 0.0652174 
r149 910 361 0.0141284 
r150 361 912 0.0652174 
r151 800 344 0.130435 
r152 871 259 0.00313778 
r153 936 259 0.0652174 
r154 344 249 0.0031351 
r155 938 249 0.0652174 
r156 209 344 0.00314046 
r157 942 209 0.0652174 
r158 199 896 0.00313778 
r159 944 199 0.0652174 
r160 793 181 0.130435 
r161 96 847 0.0126027 
r162 845 96 0.0131507 
r163 925 96 0.0652174 
r164 181 86 0.0031351 
r165 927 86 0.0652174 
r166 46 181 0.00314046 
r167 931 46 0.0652174 
r168 36 871 0.00313778 
r169 933 36 0.0652174 
r170 24 750 0.132033 
r171 686 24 0.0473573 
r172 23 749 0.250407 
r173 23 683 0.0473573 
r174 16 754 0.132033 
r175 682 16 0.0473573 
.ends

.subckt PM_PC3O01%pgate 43 45 68 70 77 84 93 165
c0 177 0 15.7527f
c1 170 0 1.0684f
c2 165 0 0.00479055f
c3 163 0 2.87412f
c4 161 0 0.391813f
c5 158 0 0.916685f
c6 149 0 0.420458f
c7 138 0 0.143798f
c8 136 0 0.0712688f
c9 134 0 9.37046f
c10 132 0 4.43036f
c11 120 0 15.6897f
c12 114 0 2.44062f
c13 110 0 1.24523f
c14 108 0 0.102921f
c15 107 0 0.57994f
c16 106 0 0.0281334f
c17 104 0 0.0320259f
c18 103 0 0.221109f
c19 102 0 0.0274814f
c20 93 0 1.39804f
c21 90 0 0.333301f
c22 88 0 0.367229f
c23 84 0 1.10132f
c24 81 0 0.293889f
c25 77 0 2.02198f
c26 75 0 0.0451266f
c27 74 0 0.281251f
c28 70 0 2.09258f
c29 68 0 1.45036f
c30 41 0 5.10529f
c31 37 0 0.41942f
c32 34 0 0.97339f
c33 32 0 4.86528f
c34 31 0 0.388306f
c35 19 0 0.377345f
r36 163 165 4.4175 
r37 149 177 0.361 
r38 147 149 6 
r39 138 177 6 
r40 136 138 0.179355 
r41 132 134 6 
r42 131 136 0.0460311 
r43 131 132 5.68667 
r44 130 134 9.48667 
r45 122 163 6 
r46 147 120 3.22267 
r47 118 120 6 
r48 118 122 1.405 
r49 114 116 6 
r50 114 118 2.3 
r51 112 161 0.219512 
r52 158 112 0.164878 
r53 110 112 6 
r54 109 110 0.419512 
r55 108 130 0.0463653 
r56 107 109 0.0462628 
r57 107 108 0.31322 
r58 105 165 1.3875 
r59 105 106 0.00880368 
r60 103 116 0.118614 
r61 103 104 0.0331099 
r62 92 93 1.28 
r63 91 106 0.0338756 
r64 90 97 0.0446983 
r65 90 91 0.51 
r66 89 104 0.00945187 
r67 88 92 0.0448998 
r68 88 89 0.431111 
r69 83 104 0.0331099 
r70 83 84 1.28 
r71 82 102 0.0338756 
r72 81 106 0.0338756 
r73 81 82 0.5825 
r74 76 102 0.00880368 
r75 76 77 2.485 
r76 74 102 0.0338756 
r77 74 75 0.51 
r78 69 75 0.0446983 
r79 69 70 2.485 
r80 97 68 1.3875 
r81 41 45 394.95 
r82 40 41 1.5 
r83 170 37 0.219512 
r84 37 40 2.81176 
r85 34 170 0.16439 
r86 32 43 394.95 
r87 31 34 2.74706 
r88 31 32 1.5 
r89 29 45 394.95 
r90 161 28 2.78235 
r91 28 29 1.5 
r92 20 43 394.95 
r93 19 158 2.74706 
r94 19 20 1.5 
.ends

.subckt PM_PC3O01%U28_ISHF 50 71 151 153 155 157 159 175
c0 175 0 1.39323f
c1 173 0 0.327663f
c2 159 0 0.695492f
c3 157 0 1.41157f
c4 155 0 0.761194f
c5 153 0 1.43153f
c6 151 0 0.779781f
c7 122 0 15.6844f
c8 116 0 1.23145f
c9 114 0 0.0528825f
c10 113 0 0.2794f
c11 110 0 0.978311f
c12 101 0 1.03945f
c13 98 0 0.355193f
c14 89 0 2.13173f
c15 85 0 0.108562f
c16 82 0 0.22186f
c17 81 0 0.124177f
c18 77 0 0.109622f
c19 76 0 0.160508f
c20 75 0 0.133617f
c21 71 0 1.00594f
c22 69 0 0.0435244f
c23 68 0 0.420529f
c24 60 0 0.391991f
c25 56 0 0.0897399f
c26 50 0 0.66975f
c27 7 0 0.142285f
c28 5 0 0.143847f
c29 3 0 0.0660347f
c30 1 0 0.0475132f
r31 166 168 4.76667 
r32 143 159 63.5 
r33 168 122 1.164 
r34 120 122 6 
r35 175 118 1.445 
r36 116 118 6 
r37 116 120 2.0425 
r38 115 120 0.1125 
r39 113 115 0.0447588 
r40 113 114 0.352 
r41 110 173 6 
r42 108 114 0.0447588 
r43 108 110 1.545 
r44 104 106 6 
r45 101 104 1.78933 
r46 101 168 6 
r47 96 98 6 
r48 94 96 1.6975 
r49 94 166 6 
r50 89 91 6 
r51 89 94 2.0275 
r52 88 175 1.3175 
r53 86 173 0.4425 
r54 85 86 0.02 
r55 83 85 0.145 
r56 82 106 0.05375 
r57 80 98 0.56 
r58 80 81 0.0153295 
r59 76 91 0.121767 
r60 75 77 0.0884706 
r61 75 76 0.0200471 
r62 70 71 1.3175 
r63 69 88 0.0446983 
r64 68 70 0.0446983 
r65 68 69 0.51 
r66 63 83 0.02 
r67 143 60 1.6393 
r68 59 82 0.0446983 
r69 59 60 0.2475 
r70 55 81 0.0268652 
r71 55 56 0.0819048 
r72 63 50 0.7925 
r73 8 157 168.333 
r74 7 56 6.16667 
r75 7 8 3.35237 
r76 6 155 85.8333 
r77 5 77 6.5 
r78 5 6 3.35237 
r79 4 153 168.333 
r80 3 56 6.16667 
r81 3 4 3.35237 
r82 2 151 85.8333 
r83 1 77 6.83333 
r84 1 2 3.35237 
.ends

.subckt PM_PC3O01%ngate 50 55 88 90 97 102 163
c0 163 0 1.40947f
c1 161 0 0.247261f
c2 157 0 0.127185f
c3 149 0 0.800135f
c4 148 0 0.446403f
c5 146 0 0.0877319f
c6 145 0 8.16542f
c7 142 0 5.2763f
c8 136 0 0.119781f
c9 135 0 0.0505664f
c10 130 0 16.4016f
c11 128 0 2.12911f
c12 124 0 0.0811924f
c13 121 0 0.110666f
c14 117 0 0.0380767f
c15 111 0 1.5194f
c16 109 0 0.0846246f
c17 108 0 0.338311f
c18 106 0 0.416068f
c19 102 0 1.33664f
c20 97 0 1.47759f
c21 95 0 0.0572359f
c22 94 0 0.766022f
c23 90 0 1.43759f
c24 88 0 0.957449f
c25 62 0 0.968623f
c26 55 0 3.04886f
c27 54 0 0.167758f
c28 50 0 3.04886f
c29 49 0 0.169175f
r30 171 173 0.0556098 
r31 155 157 6 
r32 173 148 0.00439024 
r33 147 149 0.0725512 
r34 147 148 1.5 
r35 145 149 0.0735615 
r36 145 146 7.1184 
r37 142 157 6 
r38 140 146 0.0449356 
r39 140 142 5.88364 
r40 163 138 1.63125 
r41 136 138 6 
r42 135 136 0.111111 
r43 132 161 6 
r44 155 130 3.45733 
r45 128 130 6 
r46 128 132 2.2825 
r47 127 135 0.0448998 
r48 127 128 1.29875 
r49 126 163 1.3625 
r50 123 124 0.101935 
r51 119 161 0.295 
r52 118 121 0.0748718 
r53 118 119 0.02 
r54 112 124 0.02 
r55 111 123 0.02 
r56 110 121 0.02 
r57 110 111 2.71 
r58 108 123 0.0412903 
r59 108 109 0.424516 
r60 107 117 0.0263189 
r61 106 126 0.0459603 
r62 106 107 0.379535 
r63 101 109 0.044713 
r64 101 102 1.2375 
r65 96 117 0.0159026 
r66 96 97 1.3625 
r67 94 117 0.0263189 
r68 94 95 0.885581 
r69 89 95 0.0459603 
r70 89 90 1.4225 
r71 112 88 1.2375 
r72 60 62 5.05882 
r73 59 62 5.05882 
r74 54 60 3.88985 
r75 54 55 183.96 
r76 49 59 3.88985 
r77 49 50 183.96 
r78 62 27 0.00133393 
r79 171 27 3 
r80 62 9 0.0278113 
r81 173 9 3 
.ends

.subckt PM_PC3O01%net_m30_VDDO_res 43 63 65 68
c0 68 0 0.801772f
c1 65 0 0.590732f
c2 63 0 0.796648f
c3 49 0 0.448853f
c4 45 0 0.0527f
c5 43 0 0.600072f
c6 22 0 0.0400745f
c7 21 0 0.0320251f
c8 19 0 0.053048f
c9 17 0 0.0366477f
c10 16 0 0.176894f
c11 13 0 0.225677f
c12 12 0 0.0819355f
c13 11 0 0.133173f
c14 10 0 0.16889f
r15 45 49 0.427059 
r16 42 45 0.0446983 
r17 42 43 0.495294 
r18 22 68 85 
r19 21 65 85 
r20 20 49 9.65455 
r21 20 21 3.10804 
r22 18 49 3.98182 
r23 18 19 1.59377 
r24 17 63 85 
r25 16 22 3.10804 
r26 15 16 13.6364 
r27 14 19 1.62728 
r28 13 15 3.63478 
r29 13 14 6.04082 
r30 11 19 1.62728 
r31 11 12 6.04082 
r32 10 17 3.10804 
r33 9 12 3.63478 
r34 9 10 13.6364 
.ends

.subckt PM_PC3O01%net_m32_VSSO_res 3 61 63 66
c0 66 0 0.780017f
c1 63 0 0.576082f
c2 61 0 0.766069f
c3 50 0 0.140054f
c4 49 0 0.142067f
c5 41 0 0.103397f
c6 40 0 0.206778f
c7 39 0 0.0872947f
c8 11 0 0.193353f
c9 10 0 0.209591f
c10 9 0 0.0458288f
c11 3 0 0.434946f
r12 50 52 0.978887 
r13 49 63 85 
r14 49 52 4.26358 
r15 41 50 0.0968421 
r16 40 41 0.02 
r17 39 40 0.4375 
r18 15 66 85 
r19 14 61 85 
r20 13 14 2.08655 
r21 12 52 1.92898 
r22 11 15 3.35237 
r23 11 12 8.5 
r24 10 13 6.55006 
r25 9 52 1.92898 
r26 9 10 6.33333 
r27 3 39 0.0454315 
.ends

.subckt PM_PC3O01%U28_U16_MPLL1_dr 23 28 62 69 78
c0 78 0 1.6227f
c1 73 0 0.280369f
c2 69 0 0.00171897f
c3 62 0 0.673964f
c4 57 0 0.0941365f
c5 46 0 1.34386f
c6 44 0 0.0523079f
c7 43 0 0.257732f
c8 42 0 1.22487f
c9 39 0 0.96671f
c10 36 0 0.34338f
c11 34 0 0.0261329f
c12 32 0 0.283307f
c13 28 0 0.72122f
c14 27 0 0.0641424f
c15 23 0 1.16426f
c16 21 0 0.151966f
r17 73 57 0.0870588 
r18 57 56 1.85359 
r19 56 62 63 
r20 50 73 6 
r21 78 48 1.445 
r22 46 48 6 
r23 45 46 1.82706 
r24 43 45 0.0452449 
r25 43 44 0.311429 
r26 42 50 0.0217177 
r27 41 44 0.0452449 
r28 41 42 1.77294 
r29 39 69 1.1675 
r30 37 39 6 
r31 36 50 0.023034 
r32 36 37 0.405 
r33 35 78 1.6225 
r34 33 34 0.00880368 
r35 32 35 0.0446983 
r36 32 33 0.51 
r37 27 28 0.546341 
r38 22 34 0.0338756 
r39 22 23 1.6225 
r40 21 34 0.0338756 
r41 20 27 0.0455877 
r42 20 21 0.335 
.ends

.subckt PM_PC3O01%noxref_11 8 18
c0 20 0 4.64656f
c1 18 0 1.0414f
c2 8 0 5.83163f
r3 18 20 0.131053 
r4 20 8 0.144632 
.ends

.subckt PM_PC3O01%I 58 99 143 145 147 149 151 186
c0 185 0 0.197619f
c1 182 0 0.198799f
c2 178 0 7.78417f
c3 169 0 0.122106f
c4 161 0 15.707f
c5 151 0 0.358895f
c6 149 0 0.358411f
c7 147 0 0.468927f
c8 145 0 0.755579f
c9 143 0 0.800816f
c10 135 0 0.175716f
c11 124 0 0.124726f
c12 110 0 0.0927237f
c13 109 0 0.0448781f
c14 104 0 0.136491f
c15 102 0 7.05003f
c16 96 0 0.118765f
c17 94 0 0.0726505f
c18 87 0 1.36862f
c19 85 0 0.967486f
c20 79 0 0.0902818f
c21 77 0 1.18593f
c22 71 0 0.120178f
c23 69 0 1.20388f
c24 68 0 0.0404269f
c25 67 0 3.37885f
c26 62 0 0.159858f
c27 57 0 0.0461324f
c28 54 0 0.111187f
c29 52 0 0.120275f
c30 49 0 0.608364f
c31 8 0 0.0839101f
c32 5 0 0.229083f
c33 3 0 0.094844f
c34 1 0 0.0261982f
r35 169 172 0.00275862 
r36 161 182 6 
r37 159 161 3.62286 
r38 158 159 0.521429 
r39 156 158 3.53429 
r40 136 138 0.154639 
r41 136 172 1.81701 
r42 135 151 86.6667 
r43 135 138 7.76944 
r44 124 147 86.6667 
r45 112 182 0.000402516 
r46 110 112 6 
r47 109 110 0.12 
r48 106 178 6 
r49 169 104 6 
r50 102 104 6 
r51 102 106 4.42207 
r52 101 109 0.0447162 
r53 101 102 5.93103 
r54 96 186 0.024 
r55 96 185 0.0535835 
r56 94 96 6 
r57 94 99 0.024 
r58 93 178 12.9545 
r59 90 159 6 
r60 85 87 6 
r61 85 90 2.03429 
r62 82 158 6 
r63 77 79 6 
r64 77 82 1.94483 
r65 74 156 6 
r66 69 71 6 
r67 69 74 1.88 
r68 67 93 0.0447162 
r69 67 68 7.78 
r70 65 68 0.0446983 
r71 65 185 0.582857 
r72 63 87 2.84571 
r73 62 63 0.02 
r74 58 62 0.0624 
r75 57 79 0.0186667 
r76 53 71 0.0746667 
r77 52 54 0.0539535 
r78 52 53 0.02 
r79 124 49 5.64957 
r80 48 57 0.0447675 
r81 48 49 0.951429 
r82 7 149 86.6667 
r83 7 8 9.57365 
r84 6 145 85 
r85 5 54 5.91667 
r86 5 6 3.35237 
r87 4 143 85 
r88 3 54 6.25 
r89 3 4 3.35237 
r90 2 8 1.5 
r91 1 138 2.04897 
r92 1 2 7 
.ends

.subckt PM_PC3O01%U28_U16_MN1_drai 35 52 89 104 106
c0 116 0 0.141759f
c1 112 0 0.121666f
c2 110 0 0.148254f
c3 106 0 0.795175f
c4 104 0 0.759563f
c5 89 0 0.0986817f
c6 80 0 1.95067f
c7 78 0 2.22505f
c8 77 0 0.0419421f
c9 75 0 0.103609f
c10 72 0 1.88075f
c11 67 0 0.44939f
c12 62 0 0.593279f
c13 56 0 0.0434164f
c14 55 0 0.338933f
c15 52 0 1.24405f
c16 49 0 0.697166f
c17 48 0 0.0800686f
c18 46 0 1.31883f
c19 45 0 0.190779f
c20 44 0 0.0495754f
c21 41 0 0.137394f
c22 40 0 0.103917f
c23 39 0 0.0410755f
c24 38 0 0.160149f
c25 37 0 0.0650213f
c26 35 0 0.876095f
c27 7 0 0.0715943f
c28 5 0 0.148833f
c29 2 0 0.140632f
r30 110 112 6 
r31 83 112 6 
r32 78 80 6 
r33 78 83 3.44 
r34 77 80 3.16774 
r35 73 75 0.0685714 
r36 72 77 0.0448488 
r37 71 75 0.02 
r38 71 72 3.64286 
r39 69 116 0.03 
r40 67 69 6 
r41 66 73 0.02 
r42 66 67 0.762857 
r43 65 110 0.168 
r44 89 62 48.6667 
r45 56 65 0.0446983 
r46 55 57 0.0446983 
r47 55 56 0.445333 
r48 63 52 0.394286 
r49 50 52 2.41143 
r50 49 116 0.02 
r51 63 48 0.142857 
r52 48 49 1.11429 
r53 47 62 0.0178793 
r54 46 50 0.0446983 
r55 46 47 1.98286 
r56 44 62 0.026819 
r57 44 45 0.402857 
r58 40 41 0.135814 
r59 38 45 0.0446983 
r60 38 39 0.308571 
r61 37 40 0.0473431 
r62 36 39 0.0446983 
r63 36 37 0.205714 
r64 57 35 0.714667 
r65 7 41 3.33333 
r66 6 7 1.85567 
r67 5 106 85 
r68 5 6 7.83382 
r69 3 41 6.33333 
r70 2 3 1.5 
r71 1 104 85 
r72 1 2 8.71073 
.ends

.subckt PM_PC3O01%PAD 21 50 91 120 161 190 254 278 302 326 356 362 431 470 494
+ 501
c0 509 0 28.1624f
c1 502 0 83.6826f
c2 501 0 64.3341f
c3 498 0 159.215f
c4 493 0 0.992829f
c5 488 0 12.1275f
c6 476 0 12.9939f
c7 467 0 0.118304f
c8 465 0 205.332f
c9 450 0 15.3329f
c10 439 0 46.9405f
c11 434 0 65.4578f
c12 432 0 15.859f
c13 431 0 1.01632f
c14 430 0 0.217689f
c15 362 0 13.1526f
c16 356 0 13.106f
c17 326 0 13.1036f
c18 302 0 13.117f
c19 278 0 13.3644f
c20 254 0 13.1036f
c21 212 0 7.52869f
c22 190 0 2.98439f
c23 173 0 6.78396f
c24 161 0 2.98493f
c25 144 0 6.78396f
c26 120 0 2.98342f
c27 103 0 6.78396f
c28 91 0 2.98342f
c29 74 0 6.78396f
c30 50 0 2.98341f
c31 33 0 6.78396f
c32 21 0 2.98342f
c33 4 0 6.78396f
r34 509 510 0.0174349 
r35 508 509 0.100972 
r36 507 508 0.118407 
r37 506 507 0.056883 
r38 505 506 0.061524 
r39 504 505 0.118407 
r40 503 504 0.118407 
r41 501 502 0.0124825 
r42 499 501 0.000593149 
r43 498 499 0.0669731 
r44 493 494 0.00916 
r45 488 509 0.06 
r46 476 506 0.015 
r47 467 470 0.00916 
r48 467 493 2 
r49 465 476 0.0264274 
r50 463 465 0.147454 
r51 463 464 0.0288462 
r52 457 458 0.00752787 
r53 456 457 0.021023 
r54 454 456 0.000537705 
r55 454 498 0.00162999 
r56 452 454 0.000537705 
r57 450 452 0.0285508 
r58 441 493 0.1388 
r59 440 441 0.132996 
r60 439 440 0.0171733 
r61 436 437 0.0171733 
r62 435 436 0.0171733 
r63 434 435 0.0171733 
r64 433 439 0.0142401 
r65 433 437 0.00293318 
r66 432 464 0.00646891 
r67 432 434 0.00818451 
r68 430 488 0.217989 
r69 430 431 0.0147368 
r70 351 356 0.0072093 
r71 434 351 0.0566038 
r72 349 362 0.0072093 
r73 440 349 0.0566038 
r74 322 326 0.0072093 
r75 439 322 0.0566038 
r76 298 302 0.0072093 
r77 437 298 0.0566038 
r78 274 278 0.0072093 
r79 436 274 0.0566038 
r80 250 254 0.0072093 
r81 435 250 0.0566038 
r82 230 233 0.0022831 
r83 458 230 0.0375475 
r84 230 499 0.00547945 
r85 456 229 0.00210084 
r86 227 229 0.000537705 
r87 452 227 0.00210084 
r88 229 218 0.0105115 
r89 457 218 0.00712251 
r90 214 233 0.0187738 
r91 218 214 0.00376393 
r92 458 214 0.00712251 
r93 212 227 0.0142754 
r94 450 212 0.00356125 
r95 502 197 0.345778 
r96 196 508 0.0220132 
r97 196 197 0.319822 
r98 190 177 0.00249413 
r99 197 177 0.0425532 
r100 173 190 0.00249413 
r101 197 173 0.0425532 
r102 502 168 0.345778 
r103 167 510 0.0220132 
r104 167 168 0.319822 
r105 161 148 0.00249413 
r106 168 148 0.0425532 
r107 144 161 0.00249413 
r108 168 144 0.0425532 
r109 502 127 0.345778 
r110 126 505 0.0220132 
r111 126 127 0.319822 
r112 120 107 0.00249413 
r113 127 107 0.0425532 
r114 103 120 0.00249413 
r115 127 103 0.0425532 
r116 502 98 0.345778 
r117 97 507 0.0220132 
r118 97 98 0.319822 
r119 91 78 0.00249413 
r120 98 78 0.0425532 
r121 74 91 0.00249413 
r122 98 74 0.0425532 
r123 502 57 0.345778 
r124 56 503 0.0220132 
r125 56 57 0.319822 
r126 50 37 0.00249413 
r127 57 37 0.0425532 
r128 33 50 0.00249413 
r129 57 33 0.0425532 
r130 502 28 0.345778 
r131 27 504 0.0220132 
r132 27 28 0.319822 
r133 21 8 0.00249413 
r134 28 8 0.0425532 
r135 4 21 0.00249413 
r136 28 4 0.0425532 
.ends

.subckt PM_PC3O01%VDD 15 18 25 39 49 65 71 74 80
c0 80 0 97.5997f
c1 71 0 53.2975f
c2 49 0 3.00839f
c3 39 0 1.97723f
c4 38 0 0.0256351f
c5 37 0 1.45513f
c6 36 0 0.0184093f
c7 35 0 0.0535556f
c8 34 0 0.221143f
c9 32 0 0.905812f
c10 29 0 0.111027f
c11 25 0 0.523673f
c12 23 0 0.0312651f
c13 22 0 0.15775f
c14 18 0 0.593999f
c15 14 0 0.119807f
c16 13 0 1.43051f
c17 12 0 1.31377f
r18 78 80 0.00069414 
r19 77 78 0.0823181 
r20 74 77 0.000695428 
r21 63 69 0.315789 
r22 57 71 0.00414572 
r23 69 57 0.0703097 
r24 55 57 0.6 
r25 53 55 0.141 
r26 53 78 0.0925926 
r27 49 53 0.062 
r28 47 69 0.394973 
r29 65 47 0.00415301 
r30 45 47 0.6 
r31 43 45 0.141 
r32 43 77 0.0925926 
r33 39 43 0.062 
r34 37 63 0.526 
r35 35 63 0.563 
r36 33 38 0.0132241 
r37 33 34 0.174 
r38 32 38 0.0132241 
r39 31 37 0.0446983 
r40 31 32 0.832 
r41 30 36 0.0358637 
r42 29 38 0.0346762 
r43 29 30 0.325714 
r44 24 36 0.00718252 
r45 24 25 0.586667 
r46 22 36 0.0358637 
r47 22 23 0.337143 
r48 17 23 0.0449572 
r49 17 18 0.55 
r50 14 15 0.558 
r51 13 34 0.0446983 
r52 13 15 0.531 
r53 12 14 0.0446983 
r54 11 35 0.0446983 
r55 11 12 1.034 
.ends

.subckt PM_PC3O01%U29_U74$9_gate 92 97 213 218 343 348 353 358 363 369 403
c0 509 0 0.461642f
c1 504 0 0.459653f
c2 499 0 0.460813f
c3 494 0 0.461476f
c4 480 0 13.3088f
c5 473 0 0.69051f
c6 461 0 0.752062f
c7 460 0 0.746429f
c8 455 0 0.72829f
c9 450 0 0.725264f
c10 445 0 0.118493f
c11 444 0 0.574527f
c12 440 0 1.25029f
c13 438 0 1.26744f
c14 436 0 1.23398f
c15 434 0 1.18398f
c16 433 0 0.185385f
c17 432 0 9.70918f
c18 430 0 0.205788f
c19 428 0 5.22246f
c20 426 0 0.26709f
c21 424 0 0.637507f
c22 416 0 1.74611f
c23 414 0 0.474349f
c24 405 0 0.060459f
c25 404 0 0.112142f
c26 402 0 0.290636f
c27 394 0 0.534637f
c28 386 0 0.533732f
c29 380 0 0.299128f
c30 375 0 0.17009f
c31 374 0 0.607423f
c32 373 0 0.168772f
c33 372 0 0.605556f
c34 371 0 0.167363f
c35 370 0 0.536092f
c36 369 0 3.10097f