* File: pc3t03u.dist.sp.pex
* Created: Sun Jul  4 12:47:25 2010
* Program "Calibre xRC"
* Version "v2008.4_19.14"
* Nominal Temperature: 27C
* Circuit Temperature: 27C
* 
.subckt PM_PC3T03U%PAD 21 50 79 108 137 166 218 242 266 290 320 326 389 428 452
+ 459
c0 467 0 29.556f
c1 460 0 83.073f
c2 459 0 64.3341f
c3 456 0 159.215f
c4 451 0 0.991473f
c5 444 0 9.95297f
c6 434 0 14.4468f
c7 425 0 0.117887f
c8 423 0 214.259f
c9 408 0 15.3329f
c10 397 0 46.9214f
c11 392 0 65.4578f
c12 390 0 15.8919f
c13 389 0 1.04872f
c14 388 0 3.87627f
c15 326 0 13.3722f
c16 320 0 13.3637f
c17 290 0 13.36f
c18 266 0 13.3725f
c19 242 0 13.6428f
c20 218 0 13.3618f
c21 176 0 7.52869f
c22 166 0 2.98552f
c23 149 0 6.78371f
c24 137 0 2.98621f
c25 120 0 6.78371f
c26 108 0 2.98621f
c27 91 0 6.78371f
c28 79 0 2.9856f
c29 62 0 6.78371f
c30 50 0 2.9856f
c31 33 0 6.78371f
c32 21 0 2.98547f
c33 4 0 6.78371f
r34 467 468 0.118407 
r35 466 467 0.118407 
r36 465 466 0.056883 
r37 464 465 0.061524 
r38 463 464 0.118407 
r39 462 463 0.0830354 
r40 461 462 0.0353716 
r41 459 460 0.0124825 
r42 457 459 0.000593149 
r43 456 457 0.0669731 
r44 451 452 0.00916 
r45 444 462 0.0545455 
r46 434 465 0.015 
r47 425 428 0.00916 
r48 425 451 2 
r49 423 434 0.0264274 
r50 421 423 0.147454 
r51 421 422 0.0288462 
r52 415 416 0.00752787 
r53 414 415 0.021023 
r54 412 414 0.000537705 
r55 412 456 0.00162999 
r56 410 412 0.000537705 
r57 408 410 0.0285508 
r58 399 451 0.1388 
r59 398 399 0.132996 
r60 397 398 0.0171733 
r61 394 395 0.0171733 
r62 393 394 0.0171733 
r63 392 393 0.0171733 
r64 391 397 0.0142401 
r65 391 395 0.00293318 
r66 390 422 0.00646891 
r67 390 392 0.00818451 
r68 388 444 0.202116 
r69 388 389 0.0147368 
r70 315 320 0.0072093 
r71 392 315 0.0566038 
r72 313 326 0.0072093 
r73 398 313 0.0566038 
r74 286 290 0.0072093 
r75 397 286 0.0566038 
r76 262 266 0.0072093 
r77 395 262 0.0566038 
r78 238 242 0.0072093 
r79 394 238 0.0566038 
r80 214 218 0.0072093 
r81 393 214 0.0566038 
r82 194 197 0.0022831 
r83 416 194 0.0375475 
r84 194 457 0.00547945 
r85 414 193 0.00210084 
r86 191 193 0.000537705 
r87 410 191 0.00210084 
r88 193 182 0.0105115 
r89 415 182 0.00712251 
r90 178 197 0.0187738 
r91 182 178 0.00376393 
r92 416 178 0.00712251 
r93 176 191 0.0142754 
r94 408 176 0.00356125 
r95 460 173 0.345778 
r96 172 468 0.0220132 
r97 172 173 0.319822 
r98 166 153 0.00249413 
r99 173 153 0.0425532 
r100 149 166 0.00249413 
r101 173 149 0.0425532 
r102 460 144 0.345778 
r103 143 467 0.0220132 
r104 143 144 0.319822 
r105 137 124 0.00249413 
r106 144 124 0.0425532 
r107 120 137 0.00249413 
r108 144 120 0.0425532 
r109 460 115 0.345778 
r110 114 466 0.0220132 
r111 114 115 0.319822 
r112 108 95 0.00249413 
r113 115 95 0.0425532 
r114 91 108 0.00249413 
r115 115 91 0.0425532 
r116 460 86 0.345778 
r117 85 464 0.0220132 
r118 85 86 0.319822 
r119 79 66 0.00249413 
r120 86 66 0.0425532 
r121 62 79 0.00249413 
r122 86 62 0.0425532 
r123 460 57 0.345778 
r124 56 463 0.0220132 
r125 56 57 0.319822 
r126 50 37 0.00249413 
r127 57 37 0.0425532 
r128 33 50 0.00249413 
r129 57 33 0.0425532 
r130 460 28 0.345778 
r131 27 461 0.0220132 
r132 27 28 0.319822 
r133 21 8 0.00249413 
r134 28 8 0.0425532 
r135 4 21 0.00249413 
r136 28 4 0.0425532 
.ends

.subckt PM_PC3T03U%noxref_2 8 18
c0 20 0 4.82229f
c1 18 0 0.993329f
c2 8 0 6.7068f
r3 18 20 0.158105 
r4 20 8 0.158526 
.ends

.subckt PM_PC3T03U%U28_padr 40 44 52 118 120 122 164 173
c0 253 0 16.2001f
c1 247 0 9.31824f
c2 238 0 15.9631f
c3 224 0 0.145078f
c4 223 0 0.0372956f
c5 222 0 0.0478417f
c6 221 0 0.0873247f
c7 218 0 6.60484f
c8 215 0 0.611623f
c9 213 0 0.145869f
c10 209 0 5.63632f
c11 207 0 0.516633f
c12 205 0 0.0693973f
c13 204 0 0.207306f
c14 203 0 0.411447f
c15 194 0 1.04469f
c16 189 0 2.02849f
c17 183 0 0.484333f
c18 173 0 1.07645f
c19 172 0 0.703354f
c20 168 0 2.4699f
c21 167 0 0.279972f
c22 164 0 0.856439f
c23 145 0 0.0984887f
c24 138 0 0.0817276f
c25 130 0 16.0815f
c26 122 0 1.05186f
c27 120 0 0.575335f
c28 118 0 1.02278f
c29 92 0 0.134724f
c30 88 0 0.430753f
c31 85 0 0.565389f
c32 84 0 0.372629f
c33 82 0 0.104433f
c34 79 0 1.7393f
c35 78 0 0.656638f
c36 75 0 0.393604f
c37 72 0 0.0454867f
c38 71 0 0.0323226f
c39 70 0 0.0875376f
c40 65 0 0.111772f
c41 62 0 0.0982054f
c42 58 0 0.31549f
c43 56 0 0.0685833f
c44 55 0 0.0982496f
c45 52 0 1.29706f
c46 49 0 0.0427005f
c47 48 0 0.377238f
c48 44 0 2.48299f
c49 40 0 1.54399f
r50 253 240 0.172857 
r51 238 240 6 
r52 234 236 3.96133 
r53 224 226 3 
r54 223 224 0.109474 
r55 223 221 0.0456991 
r56 221 222 0.147143 
r57 218 253 2 
r58 216 222 0.0446983 
r59 216 218 10.3129 
r60 215 226 0.30381 
r61 211 213 0.10375 
r62 247 209 0.185079 
r63 207 209 1.2 
r64 206 207 0.482857 
r65 204 206 0.0446983 
r66 204 205 0.125714 
r67 203 205 0.0446983 
r68 202 215 0.0446983 
r69 202 203 0.407619 
r70 199 200 6 
r71 196 238 6.68933 
r72 236 196 4.32667 
r73 194 196 6 
r74 194 199 0.8816 
r75 182 213 0.02 
r76 182 183 0.755 
r77 178 211 0.02 
r78 172 247 0.18836 
r79 172 173 0.0147368 
r80 167 200 0.0840267 
r81 165 167 0.0448127 
r82 165 168 2.62845 
r83 168 164 0.0773806 
r84 129 130 1.07733 
r85 110 122 168.333 
r86 110 145 3.92502 
r87 105 120 51.6667 
r88 104 105 1.66667 
r89 97 118 168.333 
r90 138 97 3.6393 
r91 189 92 6 
r92 89 192 0.8025 
r93 189 89 2.8475 
r94 89 130 6 
r95 88 145 0.77 
r96 192 88 6 
r97 85 187 1.2525 
r98 85 236 6 
r99 84 138 0.7825 
r100 187 84 6 
r101 183 82 6 
r102 79 180 0.8 
r103 178 79 2.045 
r104 79 129 6 
r105 180 78 6 
r106 75 176 0.482667 
r107 75 234 6 
r108 74 129 3.08933 
r109 176 74 6 
r110 72 92 0.05 
r111 68 70 0.12 
r112 68 78 0.8825 
r113 66 82 0.04375 
r114 65 66 0.02 
r115 63 65 0.10375 
r116 62 72 0.0446983 
r117 61 71 0.0338756 
r118 61 62 0.1875 
r119 58 104 1.16667 
r120 57 71 0.0338756 
r121 57 58 0.245 
r122 55 71 0.00880368 
r123 55 56 0.25 
r124 51 56 0.0446983 
r125 51 52 1.2575 
r126 50 52 1.3775 
r127 48 50 0.0447588 
r128 48 49 0.544 
r129 70 44 2.375 
r130 39 63 0.02 
r131 39 40 1.40875 
r132 38 49 0.0447588 
r133 38 40 1.3775 
.ends

.subckt PM_PC3T03U%VDDO 762 769 776 783 790 797 804 817 863 869 873 925 956 961
+ 968 995 1051 1341 1345 1348 1352 1360 1367 1388 1417 1427 1435 1442 1454 1460
+ 1466 1472 1478 1484 1490 1500 1542 1559 1588 1593
c0 1593 0 20.9543f
c1 1585 0 4.29165f
c2 1576 0 6.89048f
c3 1567 0 8.82377f
c4 1562 0 6.18396f
c5 1559 0 51.4835f
c6 1538 0 2.98997f
c7 1504 0 9.71068f
c8 1497 0 0.488504f
c9 1490 0 1.38187f
c10 1484 0 2.71574f
c11 1478 0 1.36359f
c12 1472 0 1.72169f
c13 1466 0 1.95843f
c14 1460 0 0.815237f
c15 1454 0 1.88755f
c16 1442 0 2.48918f
c17 1439 0 3.08982f
c18 1424 0 0.505401f
c19 1420 0 30.3736f
c20 1419 0 1.97524f
c21 1417 0 63.1396f
c22 1415 0 1.61686f
c23 1366 0 51.34f
c24 1356 0 0.600211f
c25 1355 0 1.41036f
c26 1352 0 3.00492f
c27 1345 0 2.50775f
c28 1327 0 0.331843f
c29 1323 0 0.149617f
c30 1317 0 0.234896f
c31 1307 0 0.619196f
c32 1303 0 0.191655f
c33 1299 0 0.616262f
c34 1296 0 0.0782977f
c35 1294 0 0.591037f
c36 1286 0 2.51112f
c37 1249 0 9.76182f
c38 1070 0 0.336758f
c39 1055 0 11.9416f
c40 1046 0 0.457512f
c41 1017 0 4.04218f
c42 1012 0 0.147927f
c43 1011 0 1.9856f
c44 1009 0 0.288971f
c45 1005 0 0.00598355f
c46 1003 0 8.35929f
c47 1002 0 3.45367f
c48 997 0 0.913174f
c49 994 0 0.0193183f
c50 992 0 0.0208492f
c51 991 0 5.73156f
c52 988 0 0.196769f
c53 978 0 0.0968354f
c54 975 0 0.0596675f
c55 974 0 3.19619f
c56 973 0 1.09777f
c57 968 0 1.44758f
c58 965 0 0.451293f
c59 961 0 1.38391f
c60 947 0 0.339048f
c61 944 0 0.670818f
c62 942 0 0.0562526f
c63 941 0 0.4745f
c64 940 0 0.0297498f
c65 939 0 0.500512f
c66 938 0 0.247261f
c67 925 0 1.45075f
c68 817 0 7.10594f
c69 809 0 7.25248f
c70 797 0 0.00989968f
c71 790 0 0.00989968f
c72 783 0 0.0234465f
c73 776 0 0.0106158f
c74 769 0 0.0106158f
c75 762 0 0.00828265f
c76 729 0 12.0349f
c77 727 0 19.7073f
c78 725 0 19.7073f
c79 723 0 19.5543f
c80 721 0 19.7073f
c81 719 0 19.7068f
c82 717 0 11.8046f
c83 691 0 0.114758f
c84 690 0 6.34573f
c85 687 0 0.103657f
c86 686 0 6.29468f
c87 17 0 0.486838f
c88 16 0 6.73982f
c89 7 0 0.152029f
c90 6 0 6.75738f
r91 1588 1591 0.00394881 
r92 1585 1586 0.956244 
r93 1578 1579 0.279231 
r94 1576 1578 0.266538 
r95 1569 1570 0.273962 
r96 1567 1569 0.261509 
r97 1556 1557 0.250022 
r98 1555 1556 0.0785185 
r99 1554 1555 0.0205664 
r100 1553 1554 0.0319826 
r101 1552 1553 0.0354248 
r102 1551 1552 0.0124619 
r103 1550 1551 0.0353377 
r104 1549 1550 0.0354684 
r105 1548 1549 0.0128105 
r106 1547 1548 0.0256209 
r107 1546 1547 0.0186492 
r108 1540 1559 0.00304139 
r109 1557 1540 0.00174292 
r110 1538 1540 0.461538 
r111 1497 1500 0.0002 
r112 1497 1556 0.666667 
r113 1493 1555 0.6 
r114 1490 1493 0.4475 
r115 1487 1554 0.6 
r116 1484 1487 1.6625 
r117 1481 1553 0.666667 
r118 1478 1481 0.365 
r119 1475 1552 0.545455 
r120 1472 1475 1.4825 
r121 1469 1551 0.545455 
r122 1466 1469 1.63 
r123 1463 1550 0.75 
r124 1460 1463 0.1575 
r125 1457 1549 0.75 
r126 1454 1457 1.1525 
r127 1450 1451 9.66581 
r128 1448 1450 3.62581 
r129 1445 1548 0.5 
r130 1442 1445 1.455 
r131 1441 1546 0.00174292 
r132 1542 1441 0.00305011 
r133 1439 1441 0.461538 
r134 1435 1585 0.2 
r135 1431 1593 0.0039415 
r136 1591 1431 0.467422 
r137 1429 1431 0.5 
r138 1427 1429 0.181 
r139 1424 1427 0.17 
r140 1424 1557 1.5 
r141 1421 1422 0.5433 
r142 1420 1421 0.2247 
r143 1419 1435 0.0528252 
r144 1419 1422 0.099 
r145 1586 1415 0.698216 
r146 1413 1415 0.2 
r147 1413 1417 0.0136564 
r148 1579 1412 0.279231 
r149 1412 1410 0.279231 
r150 1410 1408 0.279231 
r151 1408 1406 0.266538 
r152 1404 1406 1.5 
r153 1404 1408 1.5 
r154 1404 1410 1.5 
r155 1404 1412 1.5 
r156 1404 1413 0.0314855 
r157 1403 1404 0.0601494 
r158 1570 1402 0.273962 
r159 1402 1400 0.273962 
r160 1400 1398 0.273962 
r161 1398 1396 0.261509 
r162 1394 1396 1.5 
r163 1394 1398 1.5 
r164 1394 1400 1.5 
r165 1394 1402 1.5 
r166 1394 1403 0.0634357 
r167 1564 1393 0.000747664 
r168 1391 1393 0.2 
r169 1391 1394 0.0334274 
r170 1388 1391 0.01361 
r171 1382 1578 1.5 
r172 1382 1576 1.5 
r173 1382 1579 1.5 
r174 1380 1382 0.0694058 
r175 1374 1569 1.5 
r176 1374 1567 1.5 
r177 1374 1380 0.0805639 
r178 1374 1570 1.5 
r179 1370 1562 0.2 
r180 1370 1374 0.0404834 
r181 1367 1370 0.0165962 
r182 1366 1435 0.0245381 
r183 1366 1382 0.0330312 
r184 1363 1591 0.5 
r185 1360 1363 0.181 
r186 1356 1546 1.5 
r187 1356 1360 0.17 
r188 1355 1420 0.5293 
r189 1329 1332 3 
r190 1504 1329 0.0677429 
r191 1327 1329 3 
r192 1504 1319 0.1116 
r193 1535 1319 0.0028 
r194 1317 1319 6 
r195 1293 1296 0.0446983 
r196 1293 1294 0.4 
r197 1289 1291 2.8125 
r198 1289 1448 6 
r199 1286 1289 0.5825 
r200 1249 1535 0.2648 
r201 1248 1535 0.2664 
r202 1247 1535 0.2664 
r203 1066 1070 1 
r204 1063 1323 3 
r205 1060 1063 0.2885 
r206 1060 1303 2 
r207 1451 1055 1.03355 
r208 1055 1307 1.2 
r209 1317 1030 0.000149533 
r210 1355 1029 0.0555566 
r211 1029 1030 6 
r212 1028 1332 0.0444444 
r213 1327 1028 7.40741e-05 
r214 1355 1027 0.0279474 
r215 1027 1028 1.5 
r216 1303 1026 0.000233918 
r217 1421 1026 2 
r218 1307 1024 0.000114123 
r219 1420 1024 1.2 
r220 1070 1022 0.000100503 
r221 1422 1022 1 
r222 1323 1020 0.000299625 
r223 1421 1020 3 
r224 1299 1017 6 
r225 1299 1014 0.804286 
r226 1014 1451 6 
r227 1296 1012 0.105263 
r228 1012 1450 3 
r229 1294 1011 3 
r230 1286 1009 6 
r231 1007 1051 2.645 
r232 1291 1007 6 
r233 1005 1046 0.0484211 
r234 1547 1005 2 
r235 1003 1066 0.219259 
r236 1002 1063 0.0845 
r237 1001 1017 5.04429 
r238 995 997 0.605623 
r239 993 1060 1.917 
r240 993 994 0.0149881 
r241 991 1051 0.4775 
r242 991 992 0.013668 
r243 990 1011 2.825 
r244 986 1009 0.175 
r245 985 988 0.1525 
r246 985 986 0.02 
r247 978 1007 0.567 
r248 977 1538 0.526 
r249 977 1003 0.0447005 
r250 976 1538 2.122 
r251 976 1002 0.0446983 
r252 974 1001 0.0446983 
r253 974 975 3.31857 
r254 995 973 0.584127 
r255 972 975 0.0446983 
r256 972 973 1.02286 
r257 967 994 0.0313149 
r258 967 968 1.51 
r259 966 992 0.013668 
r260 965 994 0.0149881 
r261 965 966 0.2995 
r262 960 992 0.0337919 
r263 960 961 1.64138 
r264 997 956 1.36714 
r265 944 947 0.81913 
r266 943 947 0.309565 
r267 941 990 0.0446983 
r268 941 942 0.65 
r269 939 943 0.0446983 
r270 939 940 1.04348 
r271 938 942 0.0462728 
r272 937 940 0.0446983 
r273 937 938 0.57913 
r274 924 988 0.02 
r275 924 925 1.3925 
r276 920 1439 2.122 
r277 920 978 0.0446983 
r278 947 873 5.56667 
r279 944 869 5.56667 
r280 863 1046 5.54444 
r281 820 817 0.159252 
r282 817 827 0.159252 
r283 809 817 0.159252 
r284 1564 758 0.2 
r285 817 758 0.0391734 
r286 741 817 0.0397569 
r287 731 820 0.0829907 
r288 817 731 0.0291589 
r289 1586 731 0.1 
r290 762 729 0.793846 
r291 1576 729 1.5 
r292 769 727 0.55145 
r293 1578 727 1.5 
r294 776 725 0.55145 
r295 1579 725 1.5 
r296 783 723 0.55145 
r297 1412 723 1.5 
r298 790 721 0.55145 
r299 1410 721 1.5 
r300 797 719 0.55145 
r301 1408 719 1.5 
r302 804 717 0.793846 
r303 1406 717 1.5 
r304 715 762 0.842637 
r305 1567 715 1.5 
r306 713 769 0.585344 
r307 1569 713 1.5 
r308 711 776 0.585344 
r309 1570 711 1.5 
r310 709 783 0.585344 
r311 1402 709 1.5 
r312 707 790 0.585344 
r313 1400 707 1.5 
r314 705 797 0.585344 
r315 1398 705 1.5 
r316 703 804 0.842637 
r317 1396 703 1.5 
r318 698 1564 1.79477 
r319 1562 698 0.000373832 
r320 698 741 0.2 
r321 697 827 0.73271 
r322 696 809 0.737944 
r323 695 817 0.73271 
r324 694 817 0.737944 
r325 691 695 0.0451326 
r326 691 817 2.504 
r327 690 697 0.0451326 
r328 690 817 2.44889 
r329 687 694 0.045921 
r330 687 817 2.687 
r331 686 696 0.045921 
r332 686 817 2.885 
r333 324 1352 0.0526456 
r334 1348 324 0.0552365 
r335 1403 324 0.00227273 
r336 322 1345 0.0620926 
r337 1341 322 0.0688218 
r338 1380 322 0.0025 
r339 17 1535 1.51848 
r340 16 1249 0.0447329 
r341 16 1535 1.51162 
r342 15 1329 0.0737243 
r343 15 17 0.0447329 
r344 1248 7 0.0447329 
r345 7 1535 1.51848 
r346 6 1247 0.0447329 
r347 6 1535 1.51162 
.ends

.subckt PM_PC3T03U%net_m69_VSSO_res 9 38
c0 39 0 0.725658f
c1 33 0 0.898506f
c2 30 0 0.900104f
c3 24 0 0.0630427f
c4 23 0 0.329717f
c5 22 0 0.0527767f
c6 21 0 1.38822f
c7 20 0 0.883726f
r8 33 39 2.46349 
r9 33 38 1.8 
r10 29 30 0.987826 
r11 25 39 0.596923 
r12 23 25 0.0472932 
r13 23 24 0.351765 
r14 21 29 0.0468981 
r15 21 22 2.02471 
r16 20 24 0.0446983 
r17 19 22 0.0446983 
r18 19 20 1.4 
r19 30 9 5.56667 
.ends

.subckt PM_PC3T03U%net_m56_VSSO_res 41 69 76 81 88 122
c0 122 0 0.73297f
c1 118 0 0.843065f
c2 112 0 0.0545005f
c3 98 0 0.0628754f
c4 92 0 0.235924f
c5 88 0 0.519409f
c6 86 0 0.19588f
c7 85 0 0.135544f
c8 81 0 0.519409f
c9 76 0 0.519409f
c10 74 0 0.102851f
c11 73 0 0.162435f
c12 69 0 0.720356f
c13 48 0 0.599855f
c14 46 0 0.0474302f
c15 45 0 0.366436f
r16 113 118 0.0458824 
r17 112 113 0.02 
r18 111 112 0.124706 
r19 99 122 85 
r20 96 118 2.20253 
r21 95 97 6.2212 
r22 95 96 1.5553 
r23 94 95 10.0922 
r24 93 98 2.23066 
r25 92 99 3.37824 
r26 92 93 10.8571 
r27 87 98 0.93595 
r28 87 88 85 
r29 86 97 4.70046 
r30 85 98 2.23066 
r31 85 86 9 
r32 80 97 1.5553 
r33 80 81 85 
r34 75 94 1.5553 
r35 75 76 85 
r36 73 94 2.90323 
r37 73 74 10.8571 
r38 68 74 3.37824 
r39 68 69 85 
r40 47 48 0.18 
r41 111 46 0.0446983 
r42 45 47 0.0446983 
r43 45 46 0.521176 
r44 48 41 5.56667 
.ends

.subckt PM_PC3T03U%VSS 759 799 821 846 851 863 865 870
c0 870 0 92.1905f
c1 863 0 55.6355f
c2 849 0 2.37405f
c3 846 0 0.00368951f
c4 843 0 1.24098f
c5 829 0 16.6089f
c6 817 0 1.88726f
c7 810 0 15.533f
c8 796 0 1.45509f
c9 773 0 24.8356f
c10 771 0 0.0842555f
c11 770 0 10.3516f
c12 769 0 0.0657505f
c13 768 0 7.73164f
c14 766 0 0.184939f
c15 763 0 0.0372194f
c16 759 0 4.21663f
c17 756 0 0.144425f
c18 754 0 0.578389f
c19 747 0 8.78685f
c20 745 0 0.194465f
c21 744 0 0.100013f
c22 743 0 1.92708f
c23 620 0 2.22376f
c24 616 0 2.48828f
c25 612 0 1.35297f
c26 610 0 0.23587f
c27 608 0 0.276497f
c28 605 0 26.6407f
c29 599 0 0.816164f
c30 598 0 6.34069f
c31 592 0 2.03915f
c32 586 0 0.137389f
c33 585 0 2.48809f
c34 584 0 0.154374f
c35 583 0 2.25381f
c36 539 0 0.162892f
c37 537 0 0.72248f
c38 535 0 0.203897f
c39 510 0 2.94312f
c40 496 0 3.05957f
c41 494 0 0.031054f
c42 491 0 0.571035f
c43 490 0 6.91145f
c44 489 0 0.161087f
c45 474 0 3.75323f
c46 471 0 2.96412f
r47 865 868 0.000703354 
r48 861 863 0.00318245 
r49 860 861 0.00119641 
r50 859 860 0.0758524 
r51 858 859 0.0344168 
r52 857 858 0.167059 
r53 856 857 0.128574 
r54 855 856 0.0141176 
r55 854 855 0.089651 
r56 851 854 0.00438684 
r57 849 861 0.461538 
r58 843 846 1.28857 
r59 843 859 1.5 
r60 837 857 0.0535714 
r61 824 860 0.428571 
r62 821 824 0.189 
r63 819 870 0.000702051 
r64 868 819 0.0832563 
r65 817 819 0.131579 
r66 817 821 0.013 
r67 814 815 0.56934 
r68 813 814 1.12447 
r69 810 813 0.628223 
r70 810 858 0.3 
r71 802 854 0.428571 
r72 799 802 0.189 
r73 796 799 0.013 
r74 796 868 0.131579 
r75 770 771 0.0338756 
r76 768 837 2.8715 
r77 768 769 0.0338756 
r78 762 771 0.0338756 
r79 761 769 0.0338756 
r80 759 841 2.59036 
r81 839 759 1.07807 
r82 829 759 1.577 
r83 758 771 0.00880368 
r84 758 759 0.958 
r85 757 769 0.00880368 
r86 757 759 0.986 
r87 766 756 0.0632911 
r88 756 754 0.0574488 
r89 753 763 0.0448201 
r90 750 849 1.518 
r91 749 849 0.426 
r92 747 841 1.08482 
r93 745 839 1.06072 
r94 744 829 1.5265 
r95 743 744 0.0448201 
r96 743 753 2.13041 
r97 770 622 0.733 
r98 759 622 1.93 
r99 620 783 3 
r100 617 837 1.612 
r101 763 617 1.283 
r102 617 856 1.5 
r103 839 616 1 
r104 783 612 0.24 
r105 814 612 1.5 
r106 622 610 3 
r107 813 610 3 
r108 608 841 3 
r109 815 608 3 
r110 605 807 1.1314 
r111 605 855 0.125 
r112 604 616 0.0075 
r113 625 604 0.056 
r114 807 604 0.24 
r115 602 766 0.0155975 
r116 773 602 1 
r117 600 773 0.9662 
r118 600 625 0.02 
r119 599 762 0.5005 
r120 750 599 0.0446983 
r121 598 761 0.5005 
r122 749 598 0.0446983 
r123 597 620 0.830244 
r124 596 620 0.573659 
r125 591 592 1.37048 
r126 586 597 0.0448242 
r127 586 587 0.678222 
r128 585 592 0.0447675 
r129 585 587 0.650667 
r130 584 596 0.0446983 
r131 583 591 0.0447067 
r132 583 584 1.45854 
r133 538 539 0.147619 
r134 534 535 0.14988 
r135 747 534 0.0380723 
r136 531 533 0.143333 
r137 745 530 0.0385542 
r138 528 530 0.14506 
r139 759 527 0.159 
r140 510 759 0.159 
r141 509 539 0.02 
r142 509 527 1.247 
r143 508 535 0.02 
r144 508 510 1.243 
r145 759 507 0.192 
r146 505 759 0.192 
r147 504 505 0.342 
r148 759 504 0.192 
r149 502 759 0.192 
r150 501 502 0.342 
r151 759 501 0.192 
r152 499 759 0.192 
r153 498 499 0.342 
r154 759 498 0.192 
r155 496 759 0.192 
r156 495 538 0.02 
r157 495 507 1.214 
r158 494 537 0.04 
r159 494 496 0.243 
r160 492 534 0.02 
r161 492 537 0.938734 
r162 602 491 0.102486 
r163 490 538 0.0380952 
r164 490 491 4.80524 
r165 489 754 0.555238 
r166 489 533 0.0380952 
r167 759 485 0.159 
r168 483 759 0.159 
r169 482 483 0.408 
r170 759 482 0.159 
r171 480 759 0.159 
r172 479 480 0.408 
r173 759 479 0.159 
r174 477 759 0.159 
r175 476 477 0.408 
r176 759 476 0.159 
r177 474 759 0.159 
r178 473 533 0.02 
r179 473 485 1.247 
r180 472 530 0.02 
r181 472 474 1.243 
r182 471 531 0.02 
r183 470 528 0.02 
r184 470 471 4.69271 
.ends

.subckt PM_PC3T03U%U28_U42_r1 149 154 159 164 169 174 188
c0 303 0 0.252886f
c1 299 0 0.130993f
c2 297 0 0.447165f
c3 292 0 0.447165f
c4 283 0 2.82662f
c5 270 0 0.432351f
c6 259 0 1.21055f
c7 253 0 1.21055f
c8 252 0 0.304369f
c9 250 0 0.379151f
c10 248 0 0.0792102f
c11 247 0 0.329567f
c12 244 0 6.54958f
c13 240 0 5.98872f
c14 238 0 1.11617f
c15 237 0 0.181486f
c16 236 0 1.11617f
c17 235 0 0.626642f
c18 234 0 0.295919f
c19 231 0 0.136486f
c20 225 0 0.0903556f
c21 217 0 0.171215f
c22 211 0 0.678581f
c23 203 0 0.532624f
c24 195 0 0.532624f
c25 189 0 0.305612f
c26 188 0 0.278026f
c27 181 0 0.163718f
c28 180 0 0.615146f
c29 179 0 0.171476f
c30 178 0 0.615146f
c31 177 0 0.171476f
c32 176 0 0.550917f
c33 174 0 3.10095f
c34 169 0 3.04432f
c35 164 0 3.04432f
c36 159 0 3.04432f
c37 154 0 3.04432f
c38 149 0 3.10208f
r39 269 303 0.00341463 
r40 267 269 3 
r41 267 270 0.017 
r42 265 267 0.0283 
r43 263 297 0.00292683 
r44 294 263 0.0526829 
r45 261 263 1.5 
r46 259 261 0.073098 
r47 257 292 0.00536585 
r48 289 257 0.0502439 
r49 255 257 1.5 
r50 253 255 0.073098 
r51 251 270 0.02 
r52 251 252 0.662857 
r53 250 265 0.02 
r54 249 250 0.102305 
r55 247 252 0.0446983 
r56 247 248 0.352857 
r57 244 299 6 
r58 242 248 0.0448488 
r59 242 244 6.78194 
r60 241 259 0.02 
r61 240 249 0.064391 
r62 240 241 7.042 
r63 239 253 0.02 
r64 238 259 0.02 
r65 238 239 1.378 
r66 236 253 0.02 
r67 236 237 1.378 
r68 235 237 0.0661591 
r69 285 234 0.0521951 
r70 233 235 0.11639 
r71 233 234 3 
r72 229 299 0.130323 
r73 228 231 0.153548 
r74 228 229 0.02 
r75 225 283 6 
r76 223 231 0.02 
r77 223 225 0.132903 
r78 222 283 3.99613 
r79 221 222 0.026898 
r80 217 221 0.10143 
r81 217 188 0.106667 
r82 181 211 1.85294 
r83 180 203 5.05882 
r84 179 203 5.05882 
r85 178 195 5.05882 
r86 177 195 5.05882 
r87 176 189 1.85294 
r88 171 181 3.88985 
r89 171 174 183.96 
r90 166 180 3.88985 
r91 166 169 183.96 
r92 161 179 3.88985 
r93 161 164 183.96 
r94 156 178 3.88985 
r95 156 159 183.96 
r96 151 177 3.88985 
r97 151 154 183.96 
r98 146 176 3.88985 
r99 146 149 183.96 
r100 211 99 0.00142683 
r101 303 99 3 
r102 203 81 0.00142683 
r103 297 81 3 
r104 195 56 0.00142683 
r105 292 56 3 
r106 203 45 0.0277856 
r107 294 45 3 
r108 189 20 0.00142683 
r109 285 20 3 
r110 195 9 0.0277856 
r111 289 9 3 
.ends

.subckt PM_PC3T03U%VSSO 348 354 358 419 659 873 877 884 913 920 932 946 948 953
+ 956 960 967 973 977 981 988 994 998 1005 1011 1015 1022 1028 1032 1039 1045
+ 1057 1097 1103 1107 1113
c0 1113 0 32.1154f
c1 1100 0 1.99786f
c2 1097 0 10.6898f
c3 1091 0 7.93913f
c4 1089 0 6.95922f
c5 1084 0 6.95952f
c6 1079 0 6.96108f
c7 1074 0 6.99818f
c8 1069 0 6.99818f
c9 1061 0 0.0963282f
c10 1057 0 0.00201521f
c11 1052 0 8.95235f
c12 1045 0 0.342408f
c13 1032 0 1.36597f
c14 1028 0 1.40025f
c15 1015 0 1.35721f
c16 1011 0 1.35624f
c17 998 0 1.34294f
c18 994 0 1.16989f
c19 981 0 1.38145f
c20 977 0 0.838867f
c21 973 0 1.37456f
c22 960 0 1.32465f
c23 956 0 1.55524f
c24 953 0 1.69047f
c25 951 0 0.24116f
c26 948 0 0.00103378f
c27 946 0 8.25608e-19
c28 944 0 8.96457f
c29 930 0 7.86215f
c30 926 0 1.27875f
c31 916 0 1.65707f
c32 913 0 58.2588f
c33 880 0 1.34856f
c34 877 0 10.6383f
c35 870 0 0.185758f
c36 863 0 0.115227f
c37 857 0 0.0946701f
c38 855 0 0.141337f
c39 853 0 0.0417639f
c40 852 0 0.329734f
c41 851 0 2.39675f
c42 848 0 4.93038f
c43 845 0 0.112689f
c44 844 0 0.0401332f
c45 843 0 1.52711f
c46 841 0 0.0508991f
c47 840 0 0.32733f
c48 801 0 35.3605f
c49 800 0 0.686341f
c50 796 0 0.519781f
c51 790 0 0.708327f
c52 786 0 0.0425963f
c53 785 0 3.25339f
c54 783 0 0.383003f
c55 782 0 0.713156f
c56 781 0 0.303464f
c57 780 0 3.2754f
c58 779 0 0.383249f
c59 777 0 0.498093f
c60 775 0 0.0157313f
c61 774 0 0.577149f
c62 770 0 2.14307f
c63 768 0 0.0561467f
c64 767 0 0.185287f
c65 766 0 0.343481f
c66 733 0 0.122915f
c67 732 0 8.89516f
c68 699 0 0.264591f
c69 695 0 7.03694f
c70 691 0 0.146306f
c71 486 0 0.60415f
c72 469 0 0.897859f
c73 467 0 0.102374f
c74 465 0 0.0452257f
c75 463 0 1.48087f
c76 462 0 0.031507f
c77 461 0 0.346454f
c78 448 0 0.858396f
c79 447 0 0.116135f
c80 444 0 0.539718f
c81 440 0 0.0481945f
c82 439 0 0.437966f
c83 419 0 0.114597f
c84 412 0 0.121681f
c85 318 0 7.03702f
c86 282 0 14.0332f
c87 232 0 14.0339f
c88 182 0 14.0358f
c89 132 0 14.0465f
c90 82 0 14.0465f
c91 10 0 0.146306f
r92 1111 1113 0.00282778 
r93 1110 1111 0.355444 
r94 1107 1110 0.00283333 
r95 1102 1104 0.0104918 
r96 1102 1103 0.02 
r97 1100 1102 0.0140984 
r98 1063 1064 0.0140639 
r99 1056 1057 0.0126606 
r100 1091 1054 0.0113761 
r101 1052 1054 0.0638298 
r102 1049 1095 2 
r103 1045 1049 0.000380952 
r104 946 1056 0.013211 
r105 1052 946 0.000917431 
r106 944 946 0.000913242 
r107 944 1063 0.0638298 
r108 931 932 0.02 
r109 930 1063 0.0113242 
r110 928 930 0.0327869 
r111 928 931 0.0166784 
r112 926 928 0.029258 
r113 923 1111 0.357143 
r114 920 923 0.21 
r115 918 1097 0.00544385 
r116 1095 918 0.0345455 
r117 916 918 1 
r118 916 920 0.445 
r119 911 913 0.00612761 
r120 911 1091 0.0327869 
r121 1039 909 0.130435 
r122 909 1089 0.00301741 
r123 1086 909 0.00301741 
r124 907 909 0.0266667 
r125 907 911 0.0287785 
r126 1022 906 0.130435 
r127 906 1084 0.00301741 
r128 1081 906 0.00301741 
r129 904 906 0.0266667 
r130 904 907 0.0242129 
r131 1005 903 0.130435 
r132 903 1079 0.00301741 
r133 1076 903 0.00301741 
r134 901 903 0.0266667 
r135 901 904 0.0242129 
r136 900 901 0.000615582 
r137 988 899 0.130435 
r138 899 1074 0.00301741 
r139 1071 899 0.00301741 
r140 897 899 0.0266667 
r141 897 900 0.0235973 
r142 967 896 0.130435 
r143 896 1069 0.00301741 
r144 1066 896 0.00301741 
r145 894 896 0.0266667 
r146 894 897 0.0242129 
r147 893 926 0.02 
r148 893 894 0.0277012 
r149 931 890 0.429445 
r150 887 1110 0.357143 
r151 884 887 0.21 
r152 882 1106 0.144162 
r153 1104 882 0.0334426 
r154 880 882 1 
r155 880 884 0.445 
r156 869 1095 0.127112 
r157 869 870 0.00180503 
r158 866 951 3 
r159 863 866 0.0536842 
r160 857 1061 0.0410689 
r161 855 857 3 
r162 854 855 0.148421 
r163 852 854 0.044878 
r164 852 853 0.407059 
r165 851 853 0.0446983 
r166 850 870 0.0865289 
r167 850 851 3.69176 
r168 847 863 0.02 
r169 847 848 6.36632 
r170 844 845 0.1275 
r171 843 844 0.0448391 
r172 842 843 2.75862 
r173 840 842 0.044715 
r174 840 841 0.466667 
r175 1032 839 0.285 
r176 837 839 0.6 
r177 1028 836 0.32 
r178 834 836 0.6 
r179 834 837 0.0396791 
r180 1015 833 0.36 
r181 831 833 0.6 
r182 831 834 0.043262 
r183 1011 830 0.37 
r184 828 830 0.6 
r185 828 831 0.0347594 
r186 827 828 0.0194118 
r187 998 826 0.3225 
r188 824 826 0.6 
r189 824 827 0.0785027 
r190 994 823 0.325 
r191 821 823 0.6 
r192 821 824 0.0253476 
r193 981 820 0.3425 
r194 818 820 0.6 
r195 818 821 0.0265241 
r196 977 817 0.04 
r197 815 817 0.75 
r198 815 818 0.0369519 
r199 973 814 0.365 
r200 812 814 0.6 
r201 812 815 0.0226738 
r202 960 811 0.194286 
r203 809 811 0.6 
r204 809 812 0.0224064 
r205 956 808 0.3175 
r206 806 808 0.6 
r207 806 809 0.0203209 
r208 953 805 0.96 
r209 803 805 0.666667 
r210 803 806 0.0213904 
r211 802 1100 0.02 
r212 802 803 0.0716578 
r213 801 870 0.00180503 
r214 801 837 0.0354545 
r215 800 841 0.0450432 
r216 1106 800 1.29371 
r217 796 863 0.02 
r218 796 797 0.737895 
r219 792 1057 0.230275 
r220 790 1052 0.210275 
r221 786 951 0.109474 
r222 784 948 0.229041 
r223 784 785 0.0863581 
r224 782 944 0.209132 
r225 782 783 0.0863581 
r226 792 780 0.0861375 
r227 780 781 0.132033 
r228 790 779 0.0861375 
r229 775 777 0.201086 
r230 775 774 0.0421961 
r231 1061 774 1.01412 
r232 786 770 0.0420103 
r233 769 770 3.01467 
r234 767 769 0.0446983 
r235 767 768 0.278667 
r236 766 768 0.0447588 
r237 733 946 0.128 
r238 732 781 0.0473573 
r239 732 946 0.126 
r240 699 733 0.0473573 
r241 785 699 0.132033 
r242 695 946 0.126 
r243 694 953 1.1475 
r244 692 946 0.128 
r245 691 692 0.0473573 
r246 691 783 0.250407 
r247 777 659 5.56667 
r248 848 471 6 
r249 827 469 0.75 
r250 845 467 3 
r251 465 486 0.0494737 
r252 797 465 2 
r253 462 469 0.437895 
r254 462 463 0.0407126 
r255 694 461 0.0338756 
r256 447 471 0.0413535 
r257 447 448 1.14783 
r258 443 444 0.221176 
r259 439 443 0.0446983 
r260 439 440 0.608235 
r261 437 440 0.0446983 
r262 437 463 2.01647 
r263 418 461 0.00880368 
r264 418 419 0.1375 
r265 412 766 0.6025 
r266 412 467 0.0265396 
r267 448 358 5.56667 
r268 444 354 5.56667 
r269 348 486 5.54444 
r270 321 877 0.0419737 
r271 873 321 0.0413851 
r272 900 321 0.00128205 
r273 890 318 2.21804 
r274 318 1104 0.6 
r275 1039 282 0.00313778 
r276 1089 282 0.0652174 
r277 1054 271 0.0141284 
r278 271 1056 0.0652174 
r279 1022 232 0.00313778 
r280 1084 232 0.0652174 
r281 222 1039 0.00313778 
r282 1086 222 0.0652174 
r283 1005 182 0.00313778 
r284 1079 182 0.0652174 
r285 172 1022 0.00313778 
r286 1081 172 0.0652174 
r287 988 132 0.00313778 
r288 1074 132 0.0652174 
r289 122 1005 0.00313778 
r290 1076 122 0.0652174 
r291 967 82 0.00313778 
r292 1069 82 0.0652174 
r293 72 988 0.00313778 
r294 1071 72 0.0652174 
r295 32 948 0.0126027 
r296 946 32 0.0131507 
r297 1064 32 0.0652174 
r298 22 967 0.00313778 
r299 1066 22 0.0652174 
r300 10 779 0.250407 
r301 10 695 0.0473573 
.ends

.subckt PM_PC3T03U%U15_ngate 70 77 84 91 99 107 143 145 193 199
c0 248 0 16.6024f
c1 240 0 0.53366f
c2 235 0 1.20012f
c3 233 0 0.0955656f
c4 232 0 4.78319f
c5 230 0 0.19802f
c6 228 0 6.57281f
c7 225 0 0.101723f
c8 211 0 2.99122f
c9 201 0 0.60308f
c10 200 0 0.166401f
c11 199 0 3.04886f
c12 193 0 3.04886f
c13 153 0 0.431578f
c14 145 0 0.595847f
c15 143 0 0.830826f
c16 140 0 0.149707f
c17 137 0 0.145617f
c18 128 0 0.135503f
c19 125 0 1.37431f
c20 124 0 0.141392f
c21 121 0 0.815081f
c22 116 0 3.13587f
c23 114 0 0.0377296f
c24 113 0 0.0461791f
c25 112 0 0.0266062f
c26 111 0 0.0261329f
c27 107 0 1.05589f
c28 104 0 0.130522f
c29 103 0 1.63967f
c30 99 0 1.31073f
c31 96 0 0.0804526f
c32 95 0 0.252089f
c33 91 0 1.33816f
c34 88 0 0.34697f
c35 84 0 1.42004f
c36 81 0 0.24887f
c37 77 0 1.459f
c38 75 0 0.0500957f
c39 74 0 0.28959f
c40 70 0 1.43018f
c41 26 0 0.437428f
r42 247 248 0.397333 
r43 246 247 5.35733 
r44 243 246 1.948 
r45 235 238 0.0727843 
r46 235 255 1.5 
r47 232 238 0.02 
r48 232 233 5.544 
r49 243 230 6 
r50 228 230 6 
r51 227 233 0.0447005 
r52 227 228 6.41185 
r53 223 225 0.0755556 
r54 216 223 0.02 
r55 240 208 0.00142683 
r56 205 240 0.0277856 
r57 201 240 5.05882 
r58 200 240 5.05882 
r59 195 201 3.88985 
r60 195 199 183.96 
r61 190 200 3.88985 
r62 190 193 183.96 
r63 140 145 60 
r64 140 160 3.77986 
r65 137 143 85 
r66 137 153 3.53757 
r67 128 166 0.0370021 
r68 225 128 6 
r69 125 221 2.59143 
r70 125 248 6 
r71 221 124 6 
r72 216 121 1.53143 
r73 121 247 6 
r74 153 120 0.3325 
r75 211 120 6 
r76 117 214 2.2825 
r77 211 117 1.32 
r78 117 246 6 
r79 116 160 3.7825 
r80 214 116 6 
r81 113 124 0.0613333 
r82 106 107 1.2375 
r83 105 114 0.0310989 
r84 104 106 0.044713 
r85 104 105 0.152258 
r86 103 114 0.0112231 
r87 102 113 0.0447675 
r88 102 103 3.52 
r89 166 99 1.6275 
r90 97 99 1.28 
r91 95 114 0.0310989 
r92 95 96 0.301935 