*  Tower Semiconductor 28 June 2007
*  -------------------------------------- *
*  @(#) tsl18cio150 CDL File
*  @(#) Revision 1.1
*  @(#) Date 28-Jun-2007
*  ------------------------------------------------------------- *
*  Copyright (c) 2003 Synopsys, Inc.  All Rights Reserved        
*  This information is provided pursuant to a license agreement  
*  that grants limited rights of access/use and requires that    
*  the information be treated as confidential.                   
*  ------------------------------------------------------------- *
*  Written by: makecdl.pl, rev. main/1
*  Filename: tsl18cio150.cdl
*  Total subcircuits:  93
*  -------------------------------------- *
*  Defining the default unit for both length and area
*.SCALE meter
*  -------------------------------------- *
*  Note:
*  ====
*  If you use the power pad set:
*
*         pv0f
*
*  you must replace *.EQUIV XXX=YYY by the following:
*
*       *.EQUIV  VSS=VSSO
*
*.EQUIV XXX=YYY
.SUBCKT apc3d01 CIN PAD VSS AVSS AVDD AVDDO AVSSO 
M1      U9_MPI2_drain U14_padr AVDDO   AVDDO   PH   L=.3600U  
+  W=20.0000U  
M2      U9_MPI1_drain U14_padr U9_MPI2_drain AVDDO   PH   L=.3600U  
+  W=20.0000U  
M3      U14_padr net_m3_AVDDO_res   AVDDO   AVDDO   PH   L=.3600U  W=20.0000U  
M4      CIN     U9_MPI1_drain AVDD    AVDD    PH   L=.3600U  
+  W=32.0000U  
M5      U9_MPI1_drain U14_padr AVSSO   AVSSO   NH   L=.3600U  
+  W=6.0000U  
M6      U14_padr net_m6_AVSSO_res   AVSSO   AVSSO   NH   L=.3600U  W=20.0000U  
M7      CIN     U9_MPI1_drain AVSS    AVSS    NH   L=.3600U  
+  W=6.0000U  
M9      U14_pgate_tol net_m9_AVDDO_res   U14_pgate_tol AVSSO   NH   L=.3600U  
+  W=50.0000U  
M10     U14_pgate_tol net_m10_AVSSO_res   U14_pgate_tol AVDDO   PH   L=.3600U  
+  W=50.0000U  
M13     AVDDO   net_m13_AVDDO_res   U14_pgate_tol AVSSO   NH   L=.3600U  
+  W=10.0000U  
M14     U14_pgate_tol net_m14_AVSSO_res   AVDDO   AVDDO   PH   L=.3600U  
+  W=20.0000U  
M15     PAD     U14_U71_r1 AVSSO   AVSSO   NH   L=.5000U  W=30.0000U  
M16     PAD     U14_U71_r1 AVSSO   AVSSO   NH   L=.5000U  W=30.0000U  
M17     PAD     U14_U71_r1 AVSSO   AVSSO   NH   L=.5000U  W=30.0000U  
M18     PAD     U14_U71_r1 AVSSO   AVSSO   NH   L=.5000U  W=30.0000U  
M19     PAD     U14_U71_r1 AVSSO   AVSSO   NH   L=.5000U  W=30.0000U  
M20     PAD     U14_U71_r1 AVSSO   AVSSO   NH   L=.5000U  W=30.0000U  
M21     PAD     U14_U71_r1 AVSSO   AVSSO   NH   L=.5000U  W=30.0000U  
M22     PAD     U14_U71_r1 AVSSO   AVSSO   NH   L=.5000U  W=30.0000U  
M23     PAD     U14_U71_r1 AVSSO   AVSSO   NH   L=.5000U  W=30.0000U  
M24     PAD     U14_U71_r1 AVSSO   AVSSO   NH   L=.5000U  W=30.0000U  
M25     PAD     U14_U71_r1 AVSSO   AVSSO   NH   L=.5000U  W=30.0000U  
M26     PAD     U14_U71_r1 AVSSO   AVSSO   NH   L=.5000U  W=30.0000U  
M27     AVDDO   U14_pgate_tol PAD     AVDDO   PH   L=.4000U  
+  W=52.0000U  
M28     AVDDO   U14_pgate_tol PAD     AVDDO   PH   L=.4000U  
+  W=52.0000U  
M29     AVDDO   U14_pgate_tol PAD     AVDDO   PH   L=.4000U  
+  W=52.0000U  
M30     AVDDO   U14_pgate_tol PAD     AVDDO   PH   L=.4000U  
+  W=52.0000U  
M31     AVDDO   U14_pgate_tol PAD     AVDDO   PH   L=.4000U  
+  W=52.0000U  
M32     AVDDO   U14_pgate_tol PAD     AVDDO   PH   L=.4000U  
+  W=52.0000U  
M33     AVDDO   U14_pgate_tol PAD     AVDDO   PH   L=.4000U  
+  W=52.0000U  
M34     AVDDO   U14_pgate_tol PAD     AVDDO   PH   L=.4000U  
+  W=52.0000U  
M35     AVDDO   U14_pgate_tol PAD     AVDDO   PH   L=.4000U  
+  W=52.0000U  
M36     AVDDO   U14_pgate_tol PAD     AVDDO   PH   L=.4000U  
+  W=52.0000U  
M37     AVDDO   U14_pgate_tol PAD     AVDDO   PH   L=.4000U  
+  W=52.0000U  
M38     AVDDO   U14_pgate_tol PAD     AVDDO   PH   L=.4000U  
+  W=52.0000U  
D39     AVSSO   VSS     P3  93.1700P 200.3400U 
D40     VSS     AVSSO   P3  93.1700P 200.3400U 
R8      U14_U71_r1 AVSSO   4.8910K $[RW] W=2.1U L=8.65U
R11     U14_U72_U13_r1 PAD     302.0000 $[RE] W=4U L=2.5U
R12     U14_padr U14_U72_U13_r1 302.0000 $[RE] W=4U L=2.5U

RM3   net_m3_AVDDO_res   AVDDO   1180.0000 $[RD]
RM6   net_m6_AVSSO_res   AVSSO   1180.0000 $[RD]
RM9   net_m9_AVDDO_res   AVDDO   1180.0000 $[RD]
RM10   net_m10_AVSSO_res   AVSSO   1180.0000 $[RD]
RM13   net_m13_AVDDO_res   AVDDO   1180.0000 $[RD]
RM14   net_m14_AVSSO_res   AVSSO   1180.0000 $[RD]

.ENDS apc3d01
.SUBCKT apv0a AVSSO VSS AVSS AVDD AVDDO 
C6_7    AVDDO   U31_U29_c2 L= 15.13U W=15.13U $[CH]
M4      AVDDO   U31_U29_c2 AVSSO   AVSSO   NH   L=.4000U  W=30.0000U  
M5      AVDDO   U31_U29_c2 AVSSO   AVSSO   NH   L=.4000U  W=30.0000U  
M6      AVDDO   U31_U29_c2 AVSSO   AVSSO   NH   L=.4000U  W=30.0000U  
M7      AVDDO   U31_U29_c2 AVSSO   AVSSO   NH   L=.4000U  W=30.0000U  
M8      AVDDO   U31_U29_c2 AVSSO   AVSSO   NH   L=.4000U  W=30.0000U  
M9      AVDDO   U31_U29_c2 AVSSO   AVSSO   NH   L=.4000U  W=30.0000U  
M10     AVDDO   U31_U29_c2 AVSSO   AVSSO   NH   L=.4000U  W=30.0000U  
M11     AVDDO   U31_U29_c2 AVSSO   AVSSO   NH   L=.4000U  W=30.0000U  
M12     AVDDO   U31_U29_c2 AVSSO   AVSSO   NH   L=.4000U  W=30.0000U  
M13     AVDDO   U31_U29_c2 AVSSO   AVSSO   NH   L=.4000U  W=30.0000U  
M14     AVDDO   U31_U29_c2 AVSSO   AVSSO   NH   L=.4000U  W=30.0000U  
M15     AVDDO   U31_U29_c2 AVSSO   AVSSO   NH   L=.4000U  W=30.0000U  
M18     AVSSO   U19_U31_r2 AVDDO   AVDDO   PH   L=.4000U  W=40.0000U  
M19     AVSSO   U19_U31_r2 AVDDO   AVDDO   PH   L=.4000U  W=40.0000U  
M20     AVSSO   U19_U31_r2 AVDDO   AVDDO   PH   L=.4000U  W=40.0000U  
M21     AVSSO   U19_U31_r2 AVDDO   AVDDO   PH   L=.4000U  W=40.0000U  
M22     AVSSO   U19_U31_r2 AVDDO   AVDDO   PH   L=.4000U  W=40.0000U  
M23     AVSSO   U19_U31_r2 AVDDO   AVDDO   PH   L=.4000U  W=40.0000U  
M24     AVSSO   U19_U31_r2 AVDDO   AVDDO   PH   L=.4000U  W=40.0000U  
M25     AVSSO   U19_U31_r2 AVDDO   AVDDO   PH   L=.4000U  W=40.0000U  
M26     AVSSO   U19_U31_r2 AVDDO   AVDDO   PH   L=.4000U  W=40.0000U  
M27     AVSSO   U19_U31_r2 AVDDO   AVDDO   PH   L=.4000U  W=40.0000U  
M28     AVSSO   U19_U31_r2 AVDDO   AVDDO   PH   L=.4000U  W=40.0000U  
M29     AVSSO   U19_U31_r2 AVDDO   AVDDO   PH   L=.4000U  W=40.0000U  
D30     AVSSO   VSS     P3  119.7900P 257.5800U 
D31     VSS     AVSSO   P3  119.7900P 257.5800U 
R2      U31_U29_c2 U31_U18_r2 8.2500K $[RW] W=2.1U L=14.6U
R3      U31_U18_r2 AVSSO   8.2500K $[RW] W=2.1U L=14.6U
R16     U19_U31_r1 U19_U31_r2 8.2500K $[RW] W=2.1U L=14.6U
R17     AVDDO   U19_U31_r1 8.2500K $[RW] W=2.1U L=14.6U

.ENDS apv0a
.SUBCKT apv0i AVSS VSS AVDD AVDDO AVSSO 
C4_10   AVDD    U38_U18_r1 L= 15.13U W=15.13U $[CH]
M3      AVSS    U39_U31_r2 AVDD    AVDD    P  L=.2500U  W=40.0000U  
M4      AVSS    U39_U31_r2 AVDD    AVDD    P  L=.2500U  W=40.0000U  
M5      AVSS    U39_U31_r2 AVDD    AVDD    P  L=.2500U  W=40.0000U  
M6      AVSS    U39_U31_r2 AVDD    AVDD    P  L=.2500U  W=40.0000U  
M7      AVSS    U39_U31_r2 AVDD    AVDD    P  L=.2500U  W=40.0000U  
M8      AVSS    U39_U31_r2 AVDD    AVDD    P  L=.2500U  W=40.0000U  
M9      AVSS    U39_U31_r2 AVDD    AVDD    P  L=.2500U  W=40.0000U  
M10     AVSS    U39_U31_r2 AVDD    AVDD    P  L=.2500U  W=40.0000U  
M11     AVSS    U39_U31_r2 AVDD    AVDD    P  L=.2500U  W=40.0000U  
M12     AVSS    U39_U31_r2 AVDD    AVDD    P  L=.2500U  W=40.0000U  
M13     AVSS    U39_U31_r2 AVDD    AVDD    P  L=.2500U  W=40.0000U  
M14     AVSS    U39_U31_r2 AVDD    AVDD    P  L=.2500U  W=40.0000U  
M18     AVDD    U38_U18_r1 AVSS    AVSS    N  L=.2500U  W=30.0000U  
M19     AVDD    U38_U18_r1 AVSS    AVSS    N  L=.2500U  W=30.0000U  
M20     AVDD    U38_U18_r1 AVSS    AVSS    N  L=.2500U  W=30.0000U  
M21     AVDD    U38_U18_r1 AVSS    AVSS    N  L=.2500U  W=30.0000U  
M22     AVDD    U38_U18_r1 AVSS    AVSS    N  L=.2500U  W=30.0000U  
M23     AVDD    U38_U18_r1 AVSS    AVSS    N  L=.2500U  W=30.0000U  
M24     AVDD    U38_U18_r1 AVSS    AVSS    N  L=.2500U  W=30.0000U  
M25     AVDD    U38_U18_r1 AVSS    AVSS    N  L=.2500U  W=30.0000U  
M26     AVDD    U38_U18_r1 AVSS    AVSS    N  L=.2500U  W=30.0000U  
M27     AVDD    U38_U18_r1 AVSS    AVSS    N  L=.2500U  W=30.0000U  
M28     AVDD    U38_U18_r1 AVSS    AVSS    N  L=.2500U  W=30.0000U  
M29     AVDD    U38_U18_r1 AVSS    AVSS    N  L=.2500U  W=30.0000U  
D30     VSS     AVSS    P3  119.7900P 257.5800U 
D31     AVSS    VSS     P3  119.7900P 257.5800U 
R1      U39_U31_r1 U39_U31_r2   8.2500K $[RW] W=2.1U L=14.6U
R2      AVDD    U39_U31_r1   8.2500K $[RW] W=2.1U L=14.6U
R15     U38_U31_r1 AVSS      8.2500K $[RW] W=2.1U L=14.6U
R16     U38_U18_r1 U38_U31_r1   8.2500K $[RW] W=2.1U L=14.6U

.ENDS apv0i
.SUBCKT apvda AVDDO VSS AVSS AVDD AVSSO 
C3_7    AVDDO   U30_U29_c2 L= 15.13U W=15.13U $[CH]
M4      AVDDO   U30_U29_c2 AVSSO   AVSSO   NH   L=.4000U  W=30.0000U  
M5      AVDDO   U30_U29_c2 AVSSO   AVSSO   NH   L=.4000U  W=30.0000U  
M6      AVDDO   U30_U29_c2 AVSSO   AVSSO   NH   L=.4000U  W=30.0000U  
M7      AVDDO   U30_U29_c2 AVSSO   AVSSO   NH   L=.4000U  W=30.0000U  
M8      AVDDO   U30_U29_c2 AVSSO   AVSSO   NH   L=.4000U  W=30.0000U  
M9      AVDDO   U30_U29_c2 AVSSO   AVSSO   NH   L=.4000U  W=30.0000U  
M10     AVDDO   U30_U29_c2 AVSSO   AVSSO   NH   L=.4000U  W=30.0000U  
M11     AVDDO   U30_U29_c2 AVSSO   AVSSO   NH   L=.4000U  W=30.0000U  
M12     AVDDO   U30_U29_c2 AVSSO   AVSSO   NH   L=.4000U  W=30.0000U  
M13     AVDDO   U30_U29_c2 AVSSO   AVSSO   NH   L=.4000U  W=30.0000U  
M14     AVDDO   U30_U29_c2 AVSSO   AVSSO   NH   L=.4000U  W=30.0000U  
M15     AVDDO   U30_U29_c2 AVSSO   AVSSO   NH   L=.4000U  W=30.0000U  
M18     AVSSO   U19_U31_r2 AVDDO   AVDDO   PH   L=.4000U  W=40.0000U  
M19     AVSSO   U19_U31_r2 AVDDO   AVDDO   PH   L=.4000U  W=40.0000U  
M20     AVSSO   U19_U31_r2 AVDDO   AVDDO   PH   L=.4000U  W=40.0000U  
M21     AVSSO   U19_U31_r2 AVDDO   AVDDO   PH   L=.4000U  W=40.0000U  
M22     AVSSO   U19_U31_r2 AVDDO   AVDDO   PH   L=.4000U  W=40.0000U  
M23     AVSSO   U19_U31_r2 AVDDO   AVDDO   PH   L=.4000U  W=40.0000U  
M24     AVSSO   U19_U31_r2 AVDDO   AVDDO   PH   L=.4000U  W=40.0000U  
M25     AVSSO   U19_U31_r2 AVDDO   AVDDO   PH   L=.4000U  W=40.0000U  
M26     AVSSO   U19_U31_r2 AVDDO   AVDDO   PH   L=.4000U  W=40.0000U  
M27     AVSSO   U19_U31_r2 AVDDO   AVDDO   PH   L=.4000U  W=40.0000U  
M28     AVSSO   U19_U31_r2 AVDDO   AVDDO   PH   L=.4000U  W=40.0000U  
M29     AVSSO   U19_U31_r2 AVDDO   AVDDO   PH   L=.4000U  W=40.0000U  
D30     AVSSO   VSS     P3  119.7900P 257.5800U 
D31     VSS     AVSSO   P3  119.7900P 257.5800U 
R2      U30_U29_c2 U30_U18_r2 8.2500K $[RW]  W=2.1U L=14.6U
R3      U30_U18_r2 AVSSO   8.2500K $[RW]  W=2.1U L=14.6U
R16     U19_U31_r1 U19_U31_r2 8.2500K $[RW]  W=2.1U L=14.6U
R17     AVDDO   U19_U31_r1 8.2500K $[RW]  W=2.1U L=14.6U

.ENDS apvda
.SUBCKT apvdi AVDD VSS AVSS AVDDO AVSSO 
C3_10   AVDD    U33_U18_r1 L= 15.13U W=15.13U $[CH]
M3      AVSS    U34_U31_r2 AVDD    AVDD    P  L=.2500U  W=40.0000U  
M4      AVSS    U34_U31_r2 AVDD    AVDD    P  L=.2500U  W=40.0000U  
M5      AVSS    U34_U31_r2 AVDD    AVDD    P  L=.2500U  W=40.0000U  
M6      AVSS    U34_U31_r2 AVDD    AVDD    P  L=.2500U  W=40.0000U  
M7      AVSS    U34_U31_r2 AVDD    AVDD    P  L=.2500U  W=40.0000U  
M8      AVSS    U34_U31_r2 AVDD    AVDD    P  L=.2500U  W=40.0000U  
M9      AVSS    U34_U31_r2 AVDD    AVDD    P  L=.2500U  W=40.0000U  
M10     AVSS    U34_U31_r2 AVDD    AVDD    P  L=.2500U  W=40.0000U  
M11     AVSS    U34_U31_r2 AVDD    AVDD    P  L=.2500U  W=40.0000U  
M12     AVSS    U34_U31_r2 AVDD    AVDD    P  L=.2500U  W=40.0000U  
M13     AVSS    U34_U31_r2 AVDD    AVDD    P  L=.2500U  W=40.0000U  
M14     AVSS    U34_U31_r2 AVDD    AVDD    P  L=.2500U  W=40.0000U  
M18     AVDD    U33_U18_r1 AVSSO   AVSSO   N  L=.2500U  W=30.0000U  
M19     AVDD    U33_U18_r1 AVSSO   AVSSO   N  L=.2500U  W=30.0000U  
M20     AVDD    U33_U18_r1 AVSSO   AVSSO   N  L=.2500U  W=30.0000U  
M21     AVDD    U33_U18_r1 AVSSO   AVSSO   N  L=.2500U  W=30.0000U  
M22     AVDD    U33_U18_r1 AVSSO   AVSSO   N  L=.2500U  W=30.0000U  
M23     AVDD    U33_U18_r1 AVSSO   AVSSO   N  L=.2500U  W=30.0000U  
M24     AVDD    U33_U18_r1 AVSSO   AVSSO   N  L=.2500U  W=30.0000U  
M25     AVDD    U33_U18_r1 AVSSO   AVSSO   N  L=.2500U  W=30.0000U  
M26     AVDD    U33_U18_r1 AVSSO   AVSSO   N  L=.2500U  W=30.0000U  
M27     AVDD    U33_U18_r1 AVSSO   AVSSO   N  L=.2500U  W=30.0000U  
M28     AVDD    U33_U18_r1 AVSSO   AVSSO   N  L=.2500U  W=30.0000U  
M29     AVDD    U33_U18_r1 AVSSO   AVSSO   N  L=.2500U  W=30.0000U  
D30     VSS     AVSS    P3  119.7900P 257.5800U 
D31     AVSS    VSS     P3  119.7900P 257.5800U 
R1      U34_U31_r1 U34_U31_r2   8.2500K $[RW]  W=2.1U L=14.6U
R2      AVDD    U34_U31_r1   8.2500K $[RW] W=2.1U L=14.6U
R15     U33_U31_r1 AVSS      8.2500K $[RW] W=2.1U L=14.6U
R16     U33_U18_r1 U33_U31_r1   8.2500K $[RW] W=2.1U L=14.6U

.ENDS apvdi
.SUBCKT pc3b01 PAD I OEN CIN VDD VSS VDDO VSSO 
M1      PAD     U15_ngate VSSO    VSSO    NH   L=.5000U  W=30.0000U  
M2      PAD     U15_ngate VSSO    VSSO    NH   L=.5000U  W=30.0000U  
M3      PAD     U27_U69$9_gate VSSO    VSSO    NH   L=.5000U  
+  W=30.0000U  
M4      PAD     U27_U69$9_gate VSSO    VSSO    NH   L=.5000U  
+  W=30.0000U  
M5      PAD     U27_U69$9_gate VSSO    VSSO    NH   L=.5000U  
+  W=30.0000U  
M6      PAD     U27_U69$9_gate VSSO    VSSO    NH   L=.5000U  
+  W=30.0000U  
M7      PAD     U27_U69$9_gate VSSO    VSSO    NH   L=.5000U  
+  W=30.0000U  
M8      PAD     U27_U69$9_gate VSSO    VSSO    NH   L=.5000U  
+  W=30.0000U  
M9      PAD     U27_U69$9_gate VSSO    VSSO    NH   L=.5000U  
+  W=30.0000U  
M10     PAD     U27_U69$9_gate VSSO    VSSO    NH   L=.5000U  
+  W=30.0000U  
M11     PAD     U27_U69$9_gate VSSO    VSSO    NH   L=.5000U  
+  W=30.0000U  
M12     PAD     U27_U69$9_gate VSSO    VSSO    NH   L=.5000U  
+  W=30.0000U  
M13     VDDO    U27_U72_pgate PAD     VDDO    PH   L=.4000U  
+  W=52.0000U  
M14     VDDO    U27_U72_pgate PAD     VDDO    PH   L=.4000U  
+  W=52.0000U  
M15     VDDO    U27_U71_UN_P_TOP PAD     VDDO    PH   L=.4000U  
+  W=52.0000U  
M16     VDDO    U27_U71_UN_P_TOP PAD     VDDO    PH   L=.4000U  
+  W=52.0000U  
M17     VDDO    U27_U71_UN_P_TOP PAD     VDDO    PH   L=.4000U  
+  W=52.0000U  
M18     VDDO    U27_U71_UN_P_TOP PAD     VDDO    PH   L=.4000U  
+  W=52.0000U  
M19     VDDO    U27_U71_UN_P_TOP PAD     VDDO    PH   L=.4000U  
+  W=52.0000U  
M20     VDDO    U27_U71_UN_P_TOP PAD     VDDO    PH   L=.4000U  
+  W=52.0000U  
M21     VDDO    U27_U71_UN_P_TOP PAD     VDDO    PH   L=.4000U  
+  W=52.0000U  
M22     VDDO    U27_U71_UN_P_TOP PAD     VDDO    PH   L=.4000U  
+  W=52.0000U  
M23     VDDO    U27_U71_UN_P_TOP PAD     VDDO    PH   L=.4000U  
+  W=52.0000U  
M24     VDDO    U27_U71_UN_P_TOP PAD     VDDO    PH   L=.4000U  
+  W=52.0000U  
M25     U15_pgate net_m25_VDDO_res    U27_U72_pgate VSS     NH   L=.3600U  
+  W=50.0000U  
M26     U15_pgate net_m26_VSSO_res    U27_U72_pgate VDDO    PH   L=.3600U  
+  W=50.0000U  
M30     VDDO    net_m30_VDDO_res    U27_U71_UN_P_TOP VSS     NH   L=.3600U  
+  W=10.0000U  
M31     U27_U71_UN_P_TOP net_m31_VSSO_res    VDDO    VDDO    PH   L=.3600U  
+  W=20.0000U  
M32     U15_ngate U15_ISHF VSSO    VSS     NH   L=.3600U  W=20.1000U  
M33     U15_pgate U15_U12_oenb U15_ngate VSS     NH   L=.3600U  
+  W=30.0000U  
M34     U15_pgate U15_ISHF VDDO    VDDO    PH   L=.3600U  W=40.1000U  
M35     U15_ngate U15_U15_OUTSHIFT U15_pgate VDDO    PH   L=.3600U  
+  W=30.0000U  
M36     U15_U14_MPLL1_dr U15_ISHF VDDO    VDDO    PH   L=.3600U  
+  W=7.2000U  
M37     U15_ISHF U15_U14_MPLL1_dr VDDO    VDDO    PH   L=.3600U  
+  W=7.2000U  
M38     U15_U14_MPLL1_dr I       VSSO    VSS     NH   L=.3600U  
+  W=20.0000U  
M39     U15_ISHF U15_U14_MN1_drai VSSO    VSS     NH   L=.3600U  
+  W=20.0000U  
M40     VDDO    U15_U14_MN1_drai U15_U14_MPLL1_dr VSS     NH   
+  L=.3600U  W=5.0000U  
M41     U15_U14_MN1_drai I       VSS     VSS     N   L=.1800U  
+  W=5.0000U  
M42     U15_U14_MN1_drai I       VDD     VDD     P   L=.1800U  
+  W=10.0000U  
M44     U15_U15_MPLL1_dr U15_U15_OUTSHIFT VDDO    VDDO    PH   
+  L=.3600U  W=7.2000U  
M45     U15_U15_OUTSHIFT U15_U15_MPLL1_dr VDDO    VDDO    PH   
+  L=.3600U  W=7.2000U  
M46     U15_U15_MPLL1_dr OEN     VSSO    VSS     NH   L=.3600U  
+  W=20.0000U  
M47     U15_U15_OUTSHIFT U15_U15_MN1_drai VSSO    VSS     NH   
+  L=.3600U  W=20.0000U  
M48     VDDO    U15_U15_MN1_drai U15_U15_MPLL1_dr VSS     NH   
+  L=.3600U  W=5.0000U  
M49     U15_U15_MN1_drai OEN     VSS     VSS     N   L=.1800U  
+  W=5.0000U  
M50     U15_U15_MN1_drai OEN     VDD     VDD     P   L=.1800U  
+  W=10.0000U  
M52     U15_ngate U15_U15_OUTSHIFT VSSO    VSS     NH   L=.3600U  
+  W=10.0000U  
M53     U15_U12_oenb U15_U15_OUTSHIFT VSSO    VSS     NH   L=.3600U  
+  W=10.0000U  
M54     U15_U12_oenb U15_U15_OUTSHIFT VDDO    VDDO    PH   L=.3600U  
+  W=20.0000U  
M55     U15_pgate U15_U12_oenb VDDO    VDDO    PH   L=.3600U  
+  W=20.0000U  
M56     U26_MPI2_drain U27_padr VDDO    VDDO    PH   L=.3600U  
+  W=20.0000U  
M57     U26_MPI1_drain U27_padr U26_MPI2_drain VDDO    PH   L=.3600U  
+  W=20.0000U  
M58     U27_padr net_m58_VDDO_res    VDDO    VDDO    PH   L=.3600U  W=20.0000U  
M59     CIN     U26_MPI1_drain VDD     VDD     PH   L=.3600U  
+  W=32.0000U  
M60     U26_MPI1_drain U27_padr VSSO    VSS     NH   L=.3600U  
+  W=6.0000U  
M61     U27_padr net_m61_VSSO_res    VSSO    VSS     NH   L=.3600U  W=20.0000U  
M62     CIN     U26_MPI1_drain VSS     VSS     NH   L=.3600U  
+  W=6.0000U  
D43     VSS     I       DN  250.0000F 2.0000U 
D51     VSS     OEN     DN  250.0000F 2.0000U 
R27     U27_U72_U13_r1 PAD     302.0000 $[RE] W=4U L=2.5U
R28     U27_padr U27_U72_U13_r1 302.0000 $[RE] W=4U L=2.5U
R29     U27_U69$9_gate VSSO    4.8910K $[RW] W=2.1U L=8.65U

RM25   net_m25_VDDO_res   VDDO   1180.0000 $[RD]
RM26   net_m26_VSSO_res   VSSO   1180.0000 $[RD]
RM30   net_m30_VDDO_res   VDDO   1180.0000 $[RD]
RM31   net_m31_VSSO_res   VSSO   1180.0000 $[RD]
RM58   net_m58_VDDO_res   VDDO   1180.0000 $[RD]
RM61   net_m61_VSSO_res   VSSO   1180.0000 $[RD]

.ENDS pc3b01
.SUBCKT pc3b01d PAD I OEN CIN VDD VSS VDDO VSSO 
M1      PAD     U15_ngate VSSO    VSSO    NH   L=.5000U  W=30.0000U  
M2      PAD     U15_ngate VSSO    VSSO    NH   L=.5000U  W=30.0000U  
M3      PAD     U27_U69$9_gate VSSO    VSSO    NH   L=.5000U  
+  W=30.0000U  
M4      PAD     U27_U69$9_gate VSSO    VSSO    NH   L=.5000U  
+  W=30.0000U  
M5      PAD     U27_U69$9_gate VSSO    VSSO    NH   L=.5000U  
+  W=30.0000U  
M6      PAD     U27_U69$9_gate VSSO    VSSO    NH   L=.5000U  
+  W=30.0000U  
M7      PAD     U27_U69$9_gate VSSO    VSSO    NH   L=.5000U  
+  W=30.0000U  
M8      PAD     U27_U69$9_gate VSSO    VSSO    NH   L=.5000U  
+  W=30.0000U  
M9      PAD     U27_U69$9_gate VSSO    VSSO    NH   L=.5000U  
+  W=30.0000U  
M10     PAD     U27_U69$9_gate VSSO    VSSO    NH   L=.5000U  
+  W=30.0000U  
M11     PAD     U27_U69$9_gate VSSO    VSSO    NH   L=.5000U  
+  W=30.0000U  
M12     PAD     U27_U69$9_gate VSSO    VSSO    NH   L=.5000U  
+  W=30.0000U  
M13     VDDO    U27_U72_pgate PAD     VDDO    PH   L=.4000U  
+  W=52.0000U  
M14     VDDO    U27_U72_pgate PAD     VDDO    PH   L=.4000U  
+  W=52.0000U  
M15     VDDO    U27_U71_UN_P_TOP PAD     VDDO    PH   L=.4000U  
+  W=52.0000U  
M16     VDDO    U27_U71_UN_P_TOP PAD     VDDO    PH   L=.4000U  
+  W=52.0000U  
M17     VDDO    U27_U71_UN_P_TOP PAD     VDDO    PH   L=.4000U  
+  W=52.0000U  
M18     VDDO    U27_U71_UN_P_TOP PAD     VDDO    PH   L=.4000U  
+  W=52.0000U  
M19     VDDO    U27_U71_UN_P_TOP PAD     VDDO    PH   L=.4000U  
+  W=52.0000U  
M20     VDDO    U27_U71_UN_P_TOP PAD     VDDO    PH   L=.4000U  
+  W=52.0000U  
M21     VDDO    U27_U71_UN_P_TOP PAD     VDDO    PH   L=.4000U  
+  W=52.0000U  
M22     VDDO    U27_U71_UN_P_TOP PAD     VDDO    PH   L=.4000U  
+  W=52.0000U  
M23     VDDO    U27_U71_UN_P_TOP PAD     VDDO    PH   L=.4000U  
+  W=52.0000U  
M24     VDDO    U27_U71_UN_P_TOP PAD     VDDO    PH   L=.4000U  
+  W=52.0000U  
M25     U15_pgate net_m25_VDDO_res    U27_U72_pgate VSS     NH   L=.3600U  
+  W=50.0000U  
M26     U15_pgate net_m26_VSSO_res    U27_U72_pgate VDDO    PH   L=.3600U  
+  W=50.0000U  
M30     VDDO    net_m30_VDDO_res    U27_U71_UN_P_TOP VSS     NH   L=.3600U  
+  W=10.0000U  
M31     U27_U71_UN_P_TOP net_m31_VSSO_res    VDDO    VDDO    PH   L=.3600U  
+  W=20.0000U  
M32     U15_ngate U15_ISHF VSSO    VSS     NH   L=.3600U  W=20.1000U  
M33     U15_pgate U15_U12_oenb U15_ngate VSS     NH   L=.3600U  
+  W=30.0000U  
M34     U15_pgate U15_ISHF VDDO    VDDO    PH   L=.3600U  W=40.1000U  
M35     U15_ngate U15_U15_OUTSHIFT U15_pgate VDDO    PH   L=.3600U  
+  W=30.0000U  
M36     U15_U14_MPLL1_dr U15_ISHF VDDO    VDDO    PH   L=.3600U  
+  W=7.2000U  
M37     U15_ISHF U15_U14_MPLL1_dr VDDO    VDDO    PH   L=.3600U  
+  W=7.2000U  
M38     U15_U14_MPLL1_dr I       VSSO    VSS     NH   L=.3600U  
+  W=20.0000U  
M39     U15_ISHF U15_U14_MN1_drai VSSO    VSS     NH   L=.3600U  
+  W=20.0000U  
M40     VDDO    U15_U14_MN1_drai U15_U14_MPLL1_dr VSS     NH   
+  L=.3600U  W=5.0000U  
M41     U15_U14_MN1_drai I       VSS     VSS     N   L=.1800U  
+  W=5.0000U  
M42     U15_U14_MN1_drai I       VDD     VDD     P   L=.1800U  
+  W=10.0000U  
M44     U15_U15_MPLL1_dr U15_U15_OUTSHIFT VDDO    VDDO    PH   
+  L=.3600U  W=7.2000U  
M45     U15_U15_OUTSHIFT U15_U15_MPLL1_dr VDDO    VDDO    PH   
+  L=.3600U  W=7.2000U  
M46     U15_U15_MPLL1_dr OEN     VSSO    VSS     NH   L=.3600U  
+  W=20.0000U  
M47     U15_U15_OUTSHIFT U15_U15_MN1_drai VSSO    VSS     NH   
+  L=.3600U  W=20.0000U  
M48     VDDO    U15_U15_MN1_drai U15_U15_MPLL1_dr VSS     NH   
+  L=.3600U  W=5.0000U  
M49     U15_U15_MN1_drai OEN     VSS     VSS     N   L=.1800U  
+  W=5.0000U  
M50     U15_U15_MN1_drai OEN     VDD     VDD     P   L=.1800U  
+  W=10.0000U  
M52     U15_ngate U15_U15_OUTSHIFT VSSO    VSS     NH   L=.3600U  
+  W=10.0000U  
M53     U15_U12_oenb U15_U15_OUTSHIFT VSSO    VSS     NH   L=.3600U  
+  W=10.0000U  
M54     U15_U12_oenb U15_U15_OUTSHIFT VDDO    VDDO    PH   L=.3600U  
+  W=20.0000U  
M55     U15_pgate U15_U12_oenb VDDO    VDDO    PH   L=.3600U  
+  W=20.0000U  
M56     U27_padr net_m56_VDDO_res    U28_U22_source VSS     NH   L=5.5000U  
+  W=2.0000U  
M57     U28_U22_source net_m57_VDDO_res    VSSO    VSS     NH   L=5.5000U  
+  W=2.0000U  
M58     U26_MPI2_drain U27_padr VDDO    VDDO    PH   L=.3600U  
+  W=20.0000U  
M59     U26_MPI1_drain U27_padr U26_MPI2_drain VDDO    PH   L=.3600U  
+  W=20.0000U  
M60     U27_padr net_m60_VDDO_res    VDDO    VDDO    PH   L=.3600U  W=20.0000U  
M61     CIN     U26_MPI1_drain VDD     VDD     PH   L=.3600U  
+  W=32.0000U  
M62     U26_MPI1_drain U27_padr VSSO    VSS     NH   L=.3600U  
+  W=6.0000U  
M63     U27_padr net_m63_VSSO_res    VSSO    VSS     NH   L=.3600U  W=20.0000U  
M64     CIN     U26_MPI1_drain VSS     VSS     NH   L=.3600U  
+  W=6.0000U  
D43     VSS     I       DN  250.0000F 2.0000U 
D51     VSS     OEN     DN  250.0000F 2.0000U 
R27     U27_U72_U13_r1 PAD     302.0000 $[RE] W=4U L=2.5U
R28     U27_padr U27_U72_U13_r1 302.0000 $[RE] W=4U L=2.5U
R29     U27_U69$9_gate VSSO    4.8910K $[RW] W=2.1U L=8.65U

RM25   net_m25_VDDO_res   VDDO   1180.0000 $[RD]
RM26   net_m26_VSSO_res   VSSO   1180.0000 $[RD]
RM30   net_m30_VDDO_res   VDDO   1180.0000 $[RD]
RM31   net_m31_VSSO_res   VSSO   1180.0000 $[RD]
RM56   net_m56_VDDO_res   VDDO   1180.0000 $[RD]
RM57   net_m57_VDDO_res   VDDO   1180.0000 $[RD]
RM60   net_m60_VDDO_res   VDDO   1180.0000 $[RD]
RM63   net_m63_VSSO_res   VSSO   1180.0000 $[RD]

.ENDS pc3b01d
.SUBCKT pc3b01u PAD I OEN CIN VDD VSS VDDO VSSO 
M1      U27_padr net_m1_VSSO_res    VDDO    VDDO    PH   L=2.0000U  W=2.0000U  
M2      U26_MPI2_drain U27_padr VDDO    VDDO    PH   L=.3600U  
+  W=20.0000U  
M3      U26_MPI1_drain U27_padr U26_MPI2_drain VDDO    PH   L=.3600U  
+  W=20.0000U  
M4      U27_padr net_m4_VDDO_res    VDDO    VDDO    PH   L=.3600U  W=20.0000U  
M5      CIN     U26_MPI1_drain VDD     VDD     PH   L=.3600U  
+  W=32.0000U  
M6      U26_MPI1_drain U27_padr VSSO    VSS     NH   L=.3600U  
+  W=6.0000U  
M7      U27_padr net_m7_VSSO_res    VSSO    VSS     NH   L=.3600U  W=20.0000U  
M8      CIN     U26_MPI1_drain VSS     VSS     NH   L=.3600U  
+  W=6.0000U  
M9      U15_ngate U15_ISHF VSSO    VSS     NH   L=.3600U  W=20.1000U  
M10     U15_pgate U15_U12_oenb U15_ngate VSS     NH   L=.3600U  
+  W=30.0000U  
M11     U15_pgate U15_ISHF VDDO    VDDO    PH   L=.3600U  W=40.1000U  
M12     U15_ngate U15_U15_OUTSHIFT U15_pgate VDDO    PH   L=.3600U  
+  W=30.0000U  
M13     U15_U14_MPLL1_dr U15_ISHF VDDO    VDDO    PH   L=.3600U  
+  W=7.2000U  
M14     U15_ISHF U15_U14_MPLL1_dr VDDO    VDDO    PH   L=.3600U  
+  W=7.2000U  
M15     U15_U14_MPLL1_dr I       VSSO    VSS     NH   L=.3600U  
+  W=20.0000U  
M16     U15_ISHF U15_U14_MN1_drai VSSO    VSS     NH   L=.3600U  
+  W=20.0000U  
M17     VDDO    U15_U14_MN1_drai U15_U14_MPLL1_dr VSS     NH   
+  L=.3600U  W=5.0000U  
M18     U15_U14_MN1_drai I       VSS     VSS     N   L=.1800U  
+  W=5.0000U  
M19     U15_U14_MN1_drai I       VDD     VDD     P   L=.1800U  
+  W=10.0000U  
M21     U15_U15_MPLL1_dr U15_U15_OUTSHIFT VDDO    VDDO    PH   
+  L=.3600U  W=7.2000U  
M22     U15_U15_OUTSHIFT U15_U15_MPLL1_dr VDDO    VDDO    PH   
+  L=.3600U  W=7.2000U  
M23     U15_U15_MPLL1_dr OEN     VSSO    VSS     NH   L=.3600U  
+  W=20.0000U  
M24     U15_U15_OUTSHIFT U15_U15_MN1_drai VSSO    VSS     NH   
+  L=.3600U  W=20.0000U  
M25     VDDO    U15_U15_MN1_drai U15_U15_MPLL1_dr VSS     NH   
+  L=.3600U  W=5.0000U  
M26     U15_U15_MN1_drai OEN     VSS     VSS     N   L=.1800U  
+  W=5.0000U  
M27     U15_U15_MN1_drai OEN     VDD     VDD     P   L=.1800U  
+  W=10.0000U  
M29     U15_ngate U15_U15_OUTSHIFT VSSO    VSS     NH   L=.3600U  
+  W=10.0000U  
M30     U15_U12_oenb U15_U15_OUTSHIFT VSSO    VSS     NH   L=.3600U  
+  W=10.0000U  
M31     U15_U12_oenb U15_U15_OUTSHIFT VDDO    VDDO    PH   L=.3600U  
+  W=20.0000U  
M32     U15_pgate U15_U12_oenb VDDO    VDDO    PH   L=.3600U  
+  W=20.0000U  
M33     PAD     U15_ngate VSSO    VSSO    NH   L=.5000U  W=30.0000U  
M34     PAD     U15_ngate VSSO    VSSO    NH   L=.5000U  W=30.0000U  
M35     PAD     U27_U69$9_gate VSSO    VSSO    NH   L=.5000U  
+  W=30.0000U  
M36     PAD     U27_U69$9_gate VSSO    VSSO    NH   L=.5000U  
+  W=30.0000U  
M37     PAD     U27_U69$9_gate VSSO    VSSO    NH   L=.5000U  
+  W=30.0000U  
M38     PAD     U27_U69$9_gate VSSO    VSSO    NH   L=.5000U  
+  W=30.0000U  
M39     PAD     U27_U69$9_gate VSSO    VSSO    NH   L=.5000U  
+  W=30.0000U  
M40     PAD     U27_U69$9_gate VSSO    VSSO    NH   L=.5000U  
+  W=30.0000U  
M41     PAD     U27_U69$9_gate VSSO    VSSO    NH   L=.5000U  
+  W=30.0000U  
M42     PAD     U27_U69$9_gate VSSO    VSSO    NH   L=.5000U  
+  W=30.0000U  
M43     PAD     U27_U69$9_gate VSSO    VSSO    NH   L=.5000U  
+  W=30.0000U  
M44     PAD     U27_U69$9_gate VSSO    VSSO    NH   L=.5000U  
+  W=30.0000U  
M45     VDDO    U27_U72_pgate PAD     VDDO    PH   L=.4000U  
+  W=52.0000U  
M46     VDDO    U27_U72_pgate PAD     VDDO    PH   L=.4000U  
+  W=52.0000U  
M47     VDDO    U27_U71_UN_P_TOP PAD     VDDO    PH   L=.4000U  
+  W=52.0000U  
M48     VDDO    U27_U71_UN_P_TOP PAD     VDDO    PH   L=.4000U  
+  W=52.0000U  
M49     VDDO    U27_U71_UN_P_TOP PAD     VDDO    PH   L=.4000U  
+  W=52.0000U  
M50     VDDO    U27_U71_UN_P_TOP PAD     VDDO    PH   L=.4000U  
+  W=52.0000U  
M51     VDDO    U27_U71_UN_P_TOP PAD     VDDO    PH   L=.4000U  
+  W=52.0000U  
M52     VDDO    U27_U71_UN_P_TOP PAD     VDDO    PH   L=.4000U  
+  W=52.0000U  
M53     VDDO    U27_U71_UN_P_TOP PAD     VDDO    PH   L=.4000U  
+  W=52.0000U  
M54     VDDO    U27_U71_UN_P_TOP PAD     VDDO    PH   L=.4000U  
+  W=52.0000U  
M55     VDDO    U27_U71_UN_P_TOP PAD     VDDO    PH   L=.4000U  
+  W=52.0000U  
M56     VDDO    U27_U71_UN_P_TOP PAD     VDDO    PH   L=.4000U  
+  W=52.0000U  
M57     U15_pgate net_m57_VDDO_res    U27_U72_pgate VSS     NH   L=.3600U  
+  W=50.0000U  
M58     U15_pgate net_m58_VSSO_res    U27_U72_pgate VDDO    PH   L=.3600U  
+  W=50.0000U  
M62     VDDO    net_m62_VDDO_res    U27_U71_UN_P_TOP VSS     NH   L=.3600U  
+  W=10.0000U  
M63     U27_U71_UN_P_TOP net_m63_VSSO_res    VDDO    VDDO    PH   L=.3600U  
+  W=20.0000U  
D20     VSS     I       DN  250.0000F 2.0000U 
D28     VSS     OEN     DN  250.0000F 2.0000U 
R59     U27_U72_U13_r1 PAD     302.0000 $[RE] W=4U L=2.5U
R60     U27_padr U27_U72_U13_r1 302.0000 $[RE] W=4U L=2.5U
R61     U27_U69$9_gate VSSO    4.8910K $[RW] W=2.1U L=8.65U

RM1   net_m1_VSSO_res   VSSO   1180.0000 $[RD]
RM4   net_m4_VDDO_res   VDDO   1180.0000 $[RD]
RM7   net_m7_VSSO_res   VSSO   1180.0000 $[RD]
RM57   net_m57_VDDO_res   VDDO   1180.0000 $[RD]
RM58   net_m58_VSSO_res   VSSO   1180.0000 $[RD]
RM62   net_m62_VDDO_res   VDDO   1180.0000 $[RD]
RM63   net_m63_VSSO_res   VSSO   1180.0000 $[RD]

.ENDS pc3b01u
.SUBCKT pc3b02 PAD I OEN CIN VDD VSS VDDO VSSO 
M1      U17_ngatex U15_ngate VSSO    VSS     NH   L=.3600U  
+  W=10.0000U  
M2      U17_ngatex U15_ngate VDDO    VDDO    PH   L=.3600U  W=7.0000U 
+   
M3      U17_ngate2 I       VSSO    VSS     NH   L=.3600U  W=15.0000U  
M4      U17_ngate2 U17_ngatex VSSO    VSS     NH   L=.3600U  
+  W=1.0000U  
M5      U17_ngate2 U17_ngatex U17_U15_U8_sourc VDDO    PH   L=.3600U  
+  W=15.0000U  
M6      U17_U15_U8_sourc I       VDDO    VDDO    PH   L=.3600U  
+  W=15.0000U  
M7      PAD     U17_ngate2 VSSO    VSSO    NH   L=.5000U  W=30.0000U  
M8      PAD     U17_ngate2 VSSO    VSSO    NH   L=.5000U  W=30.0000U  
M9      PAD     U15_ngate VSSO    VSSO    NH   L=.5000U  W=30.0000U  
M10     PAD     U15_ngate VSSO    VSSO    NH   L=.5000U  W=30.0000U  
M11     PAD     U27_U69$7_gate VSSO    VSSO    NH   L=.5000U  
+  W=30.0000U  
M12     PAD     U27_U69$7_gate VSSO    VSSO    NH   L=.5000U  
+  W=30.0000U  