* File: apc3d01.dist.sp.pex
* Created: Sun Jul  4 12:03:25 2010
* Program "Calibre xRC"
* Version "v2008.4_19.14"
* Nominal Temperature: 27C
* Circuit Temperature: 27C
* 
.subckt PM_APC3D01%PAD 21 50 91 120 161 190 256 280 304 328 358 364 435 479 503
+ 518
c0 519 0 83.5485f
c1 518 0 64.3085f
c2 515 0 159.215f
c3 512 0 27.1159f
c4 502 0 1.87738f
c5 495 0 9.28667f
c6 485 0 12.6516f
c7 476 0 0.113514f
c8 473 0 196.456f
c9 459 0 15.3315f
c10 448 0 46.9837f
c11 440 0 63.8668f
c12 435 0 1.13744f
c13 434 0 3.319f
c14 364 0 12.5784f
c15 358 0 13.0092f
c16 328 0 12.5725f
c17 304 0 12.5986f
c18 280 0 12.7465f
c19 256 0 12.5725f
c20 235 0 9.75756f
c21 212 0 7.52904f
c22 190 0 2.97951f
c23 173 0 6.78269f
c24 161 0 2.97938f
c25 144 0 6.78269f
c26 120 0 2.97951f
c27 103 0 6.78269f
c28 91 0 2.97951f
c29 74 0 6.78269f
c30 50 0 2.97938f
c31 33 0 6.78269f
c32 21 0 2.97951f
c33 4 0 6.78269f
r34 518 519 0.0125154 
r35 516 518 0.000560196 
r36 515 516 0.0669731 
r37 512 513 0.118407 
r38 511 512 0.118407 
r39 510 511 0.0616494 
r40 509 510 0.0567576 
r41 508 509 0.118407 
r42 507 508 0.073879 
r43 506 507 0.0445281 
r44 502 503 0.00847525 
r45 495 507 0.06 
r46 485 510 0.0153846 
r47 476 479 0.00847525 
r48 476 502 2 
r49 472 485 0.0264274 
r50 472 473 0.144936 
r51 466 467 0.00752787 
r52 465 466 0.021023 
r53 463 465 0.000537705 
r54 463 515 0.00162999 
r55 461 463 0.000537705 
r56 459 461 0.0285508 
r57 450 502 0.256832 
r58 449 450 0.132491 
r59 448 449 0.0171733 
r60 442 443 0.0171733 
r61 441 442 0.0171733 
r62 440 441 0.0171709 
r63 446 440 0.00818687 
r64 439 448 0.0142401 
r65 439 443 0.00293318 
r66 435 434 0.0254737 
r67 434 495 0.194392 
r68 353 358 0.0072093 
r69 440 353 0.0566038 
r70 351 364 0.0072093 
r71 449 351 0.0566038 
r72 324 328 0.0072093 
r73 448 324 0.0566038 
r74 300 304 0.0072093 
r75 443 300 0.0566038 
r76 276 280 0.0072093 
r77 442 276 0.0566038 
r78 252 256 0.0072093 
r79 441 252 0.0566038 
r80 235 446 0.00692876 
r81 473 235 0.0288462 
r82 230 233 0.0022831 
r83 467 230 0.0375475 
r84 230 516 0.00547945 
r85 465 229 0.00210084 
r86 227 229 0.000537705 
r87 461 227 0.00210084 
r88 229 218 0.0105115 
r89 466 218 0.00712251 
r90 214 233 0.0187738 
r91 218 214 0.00376393 
r92 467 214 0.00712251 
r93 212 227 0.0142754 
r94 459 212 0.00356125 
r95 519 197 0.345778 
r96 196 512 0.0220132 
r97 196 197 0.319822 
r98 190 177 0.00249413 
r99 197 177 0.0425532 
r100 173 190 0.00249413 
r101 197 173 0.0425532 
r102 519 168 0.345778 
r103 167 513 0.0220132 
r104 167 168 0.319822 
r105 161 148 0.00249413 
r106 168 148 0.0425532 
r107 144 161 0.00249413 
r108 168 144 0.0425532 
r109 519 127 0.345778 
r110 126 509 0.0220132 
r111 126 127 0.319822 
r112 120 107 0.00249413 
r113 127 107 0.0425532 
r114 103 120 0.00249413 
r115 127 103 0.0425532 
r116 519 98 0.345778 
r117 97 511 0.0220132 
r118 97 98 0.319822 
r119 91 78 0.00249413 
r120 98 78 0.0425532 
r121 74 91 0.00249413 
r122 98 74 0.0425532 
r123 519 57 0.345778 
r124 56 506 0.0220132 
r125 56 57 0.319822 
r126 50 37 0.00249413 
r127 57 37 0.0425532 
r128 33 50 0.00249413 
r129 57 33 0.0425532 
r130 519 28 0.345778 
r131 27 508 0.0220132 
r132 27 28 0.319822 
r133 21 8 0.00249413 
r134 28 8 0.0425532 
r135 4 21 0.00249413 
r136 28 4 0.0425532 
.ends

.subckt PM_APC3D01%noxref_2 8 18
c0 20 0 4.49263f
c1 18 0 1.01318f
c2 8 0 5.76525f
r3 18 20 0.131053 
r4 20 8 0.144632 
.ends

.subckt PM_APC3D01%CIN 11 18 25 98 123 142
c0 140 0 0.136007f
c1 139 0 0.100962f
c2 137 0 7.5333f
c3 123 0 1.06239f
c4 115 0 2.38239f
c5 113 0 10.9967f
c6 110 0 4.38844f
c7 95 0 0.062937f
c8 92 0 0.0195825f
c9 83 0 3.10447f
c10 80 0 0.0816683f
c11 79 0 6.1888f
c12 75 0 0.0755527f
c13 73 0 0.0344101f
c14 69 0 9.35944f
c15 64 0 6.7166f
c16 50 0 0.136031f
c17 48 0 3.27189f
c18 47 0 0.146844f
c19 41 0 0.202064f
c20 39 0 0.137394f
c21 36 0 1.31662f
c22 35 0 0.0280577f
c23 33 0 0.0360401f
c24 30 0 0.221118f
c25 25 0 0.544133f
c26 22 0 0.429395f
c27 18 0 1.42437f
c28 16 0 0.0627776f
c29 15 0 0.376199f
c30 11 0 1.02078f
r31 139 142 0.0207123 
r32 139 140 0.0568712 
r33 110 137 6 
r34 108 113 0.0433263 
r35 108 110 8.62571 
r36 95 98 0.0207123 
r37 95 139 6 
r38 93 137 12.628 
r39 84 92 0.00963427 
r40 83 93 0.0447675 
r41 83 84 7.49857 
r42 81 92 0.0328973 
r43 81 140 0.331429 
r44 80 92 0.0328973 
r45 119 79 9.57714 
r46 78 80 0.11492 
r47 78 79 6 
r48 75 119 6 
r49 73 75 0.107143 
r50 115 71 2.98788 
r51 69 71 6 
r52 68 73 0.0452449 
r53 68 69 11.8835 
r54 123 66 0.5 
r55 64 66 6 
r56 61 64 8.24136 
r57 61 115 6 
r58 47 50 0.033488 
r59 47 48 4.30714 
r60 50 41 3 
r61 113 41 3 
r62 85 39 6 
r63 85 36 1.62256 
r64 36 48 6 
r65 34 39 0.0820513 
r66 34 35 0.00420241 
r67 29 35 0.0398064 
r68 29 30 0.55 
r69 24 35 0.0398064 
r70 24 25 0.29 
r71 23 33 0.029971 
r72 22 30 0.0450043 
r73 22 23 0.441081 
r74 17 33 0.0122637 
r75 17 18 0.9375 
r76 15 33 0.029971 
r77 15 16 0.441081 
r78 10 16 0.0450043 
r79 10 11 0.9375 
.ends

.subckt PM_APC3D01%U9_MPI1_drain 45 89 91 93 95 109 152
c0 152 0 0.523737f
c1 144 0 1.62337f
c2 139 0 0.707176f
c3 135 0 1.55381f
c4 133 0 6.54038f
c5 109 0 1.38984f
c6 103 0 0.3122f
c7 101 0 7.62158f
c8 95 0 0.728979f
c9 93 0 0.529837f
c10 91 0 0.513351f
c11 89 0 0.696065f
c12 62 0 1.36553f
c13 60 0 1.18803f
c14 55 0 0.0266269f
c15 52 0 0.118072f
c16 51 0 0.263958f
c17 50 0 0.0339233f
c18 49 0 0.075189f
c19 45 0 1.72621f
c20 11 0 0.0699777f
c21 10 0 0.0768317f
c22 8 0 0.07366f
c23 3 0 0.184714f
c24 2 0 0.0754438f
c25 1 0 0.124603f
r26 144 156 1.01 
r27 143 152 52.3333 
r28 143 144 2.1393 
r29 131 133 3.34091 
r30 131 156 6 
r31 128 131 2.67 
r32 139 69 1.00375 
r33 69 101 6 
r34 109 68 1.34875 
r35 139 68 6 
r36 66 101 11.8587 
r37 135 66 6 
r38 135 63 2.73 
r39 63 103 6 
r40 128 62 6 
r41 133 60 6 
r42 56 60 0.928889 
r43 54 62 2.8225 
r44 54 55 0.0338756 
r45 53 103 0.4325 
r46 53 55 0.0338756 
r47 52 56 0.0494141 
r48 51 57 0.075 
r49 51 52 0.0475 
r50 49 55 0.00880368 
r51 49 50 0.2025 
r52 44 50 0.0446983 
r53 44 45 2.495 
r54 12 95 70.3333 
r55 10 57 6.58333 
r56 10 11 2.54067 
r57 9 93 70.3333 
r58 9 11 0.660276 
r59 7 57 5.08333 
r60 7 8 2.54067 
r61 6 91 70.3333 
r62 6 8 0.660276 
r63 5 89 70.3333 
r64 4 11 2.54067 
r65 3 12 3.35237 
r66 3 4 13.5 
r67 2 5 3.35237 
r68 1 8 2.54067 
r69 1 2 13.6667 
.ends

.subckt PM_APC3D01%AVSS 442 495 502 524 538 552 555 561
c0 561 0 44.7755f
c1 552 0 19.5581f
c2 548 0 0.858969f
c3 534 0 0.827603f
c4 522 0 0.826534f
c5 521 0 14.2962f
c6 520 0 6.05025f
c7 500 0 5.57603f
c8 499 0 0.0152284f
c9 495 0 1.10338f
c10 492 0 0.456097f
c11 490 0 1.25425f
c12 489 0 8.36233f
c13 442 0 1.99914f
c14 439 0 0.317434f
c15 436 0 1.11603f
c16 431 0 14.2739f
c17 428 0 14.4694f
c18 427 0 0.308813f
c19 423 0 0.0769277f
c20 421 0 0.07694f
c21 419 0 2.71421f
c22 416 0 2.20851f
c23 414 0 2.32537f
c24 413 0 0.116741f
c25 412 0 2.09811f
c26 411 0 0.118143f
c27 410 0 2.0948f
c28 409 0 0.710163f
c29 389 0 0.331181f
c30 386 0 0.245604f
c31 360 0 3.63847f
c32 346 0 4.65443f
c33 339 0 0.247309f
c34 338 0 10.3259f
c35 326 0 4.37605f
c36 324 0 0.352618f
c37 323 0 2.82777f
r38 559 561 0.00164455 
r39 558 559 0.195027 
r40 555 558 0.0016476 
r41 541 559 0.357143 
r42 538 541 0.0765 
r43 536 552 0.00437886 
r44 550 536 0.108315 
r45 534 536 1 
r46 534 538 0.0135 
r47 527 558 0.357143 
r48 524 527 0.02 
r49 522 524 0.07 
r50 520 550 0.0533998 
r51 520 521 0.0799606 
r52 548 518 0.899759 
r53 509 548 2.71566 
r54 521 505 0.652174 
r55 504 505 0.207205 
r56 501 502 0.02 
r57 500 501 0.0329103 
r58 494 495 0.6825 
r59 493 499 0.0319357 
r60 492 494 0.0446983 
r61 492 493 0.6325 
r62 491 499 0.0146463 
r63 490 499 0.0146463 
r64 489 518 1.06651 
r65 445 511 6 
r66 442 445 0.0128571 
r67 439 518 3 
r68 437 439 3 
r69 511 436 0.775814 
r70 434 436 3 
r71 434 437 0.43549 
r72 431 434 1.55588 
r73 431 550 0.75 
r74 428 532 1.94641 
r75 428 505 0.75 
r76 427 509 3 
r77 532 427 3 
r78 425 500 0.0188327 
r79 425 504 0.027634 
r80 522 425 1 
r81 422 445 0.589048 
r82 422 423 0.00765554 
r83 420 442 0.767619 
r84 420 421 0.00823561 
r85 418 419 1.42025 
r86 417 423 0.0352726 
r87 416 419 0.0447005 
r88 416 417 1.493 
r89 415 421 0.0345602 
r90 414 418 0.0447005 
r91 414 415 1.45659 
r92 412 423 0.0352726 
r93 412 413 1.495 
r94 410 421 0.0345602 
r95 410 411 1.45854 
r96 409 491 0.518049 
r97 409 413 0.0447072 
r98 408 490 0.853659 
r99 408 411 0.0446983 
r100 388 389 0.157143 
r101 385 386 0.159036 
r102 489 385 0.0385542 
r103 382 384 0.13 
r104 548 377 0.1272 
r105 360 548 0.1272 
r106 359 389 0.02 
r107 359 377 0.9976 
r108 358 386 0.02 
r109 358 360 0.9944 
r110 548 357 0.192 
r111 355 548 0.192 
r112 354 355 0.342 
r113 548 354 0.192 
r114 352 548 0.192 
r115 351 352 0.342 
r116 548 351 0.192 
r117 349 548 0.192 
r118 348 349 0.342 
r119 548 348 0.192 
r120 346 548 0.192 
r121 345 388 0.02 
r122 345 357 1.214 
r123 344 385 0.02 
r124 344 346 1.21 
r125 339 384 0.0380952 
r126 339 548 0.664762 
r127 338 388 0.0380952 
r128 338 548 5.08 
r129 548 337 0.159 
r130 335 548 0.159 
r131 334 335 0.408 
r132 548 334 0.159 
r133 332 548 0.159 
r134 331 332 0.408 
r135 548 331 0.159 
r136 329 548 0.159 
r137 328 329 0.408 
r138 548 328 0.159 
r139 326 548 0.159 
r140 325 384 0.02 
r141 325 337 1.247 
r142 378 324 0.127719 
r143 324 326 1.2405 
r144 323 382 0.02 
r145 378 323 5.46137 
.ends

.subckt PM_APC3D01%U14_U71_r1 98 103 219 224 340 345 410 415 420 425 430 435
+ 449
c0 564 0 5.41516f
c1 562 0 1.03514f
c2 559 0 11.7282f
c3 556 0 0.305732f
c4 542 0 0.9356f
c5 540 0 0.440376f
c6 537 0 0.923218f
c7 535 0 0.442789f
c8 532 0 0.929235f
c9 530 0 0.440734f
c10 527 0 0.933498f
c11 525 0 0.441441f
c12 522 0 0.921323f
c13 520 0 0.441182f
c14 517 0 0.127308f
c15 516 0 0.545445f
c16 515 0 0.259963f
c17 512 0 1.2564f
c18 510 0 1.10418f
c19 508 0 1.09855f
c20 506 0 1.10398f
c21 504 0 1.10577f
c22 498 0 0.226869f
c23 496 0 2.57115f
c24 494 0 1.09351f
c25 491 0 7.96751f
c26 488 0 0.477779f
c27 487 0 0.278402f
c28 485 0 0.986258f
c29 478 0 0.676061f
c30 474 0 0.126355f
c31 469 0 0.534492f
c32 465 0 0.0572345f
c33 459 0 0.533782f
c34 450 0 0.308005f
c35 449 0 0.237153f
c36 442 0 0.163701f
c37 441 0 0.606654f
c38 440 0 0.168503f
c39 439 0 0.605112f
c40 438 0 0.167738f
c41 437 0 0.544992f
c42 435 0 3.10427f
c43 430 0 3.04961f
c44 425 0 3.04956f
c45 420 0 3.0495f
c46 415 0 3.04956f
c47 410 0 3.10522f
c48 354 0 0.967923f
c49 345 0 3.04955f
c50 344 0 0.167905f
c51 340 0 3.04948f
c52 339 0 0.167582f
c53 233 0 0.96777f
c54 224 0 3.04963f
c55 223 0 0.168213f
c56 219 0 3.04946f
c57 218 0 0.167405f
c58 112 0 0.967996f
c59 103 0 3.04955f
c60 102 0 0.167848f
c61 98 0 3.04963f
c62 97 0 0.168252f
r63 595 597 0.0556098 
r64 590 592 0.0556098 
r65 585 587 0.0556098 
r66 580 582 0.0556098 
r67 576 564 7.80857 
r68 562 564 6 
r69 554 556 6 
r70 554 559 0.965161 
r71 600 540 0.0556098 
r72 538 540 1.5 
r73 538 542 0.101724 
r74 597 535 0.000487805 
r75 533 535 1.5 
r76 533 537 0.100236 
r77 592 530 0.00292683 
r78 528 530 1.5 
r79 528 532 0.100897 
r80 587 525 0.00146341 
r81 523 525 1.5 
r82 523 527 0.101063 
r83 582 520 0.000487805 
r84 518 520 1.5 
r85 518 522 0.100071 
r86 604 515 0.00682927 
r87 514 516 0.0823568 
r88 514 515 3 
r89 512 516 0.0691485 
r90 512 542 1.399 
r91 538 510 0.119906 
r92 510 537 1.432 
r93 533 508 0.119906 
r94 508 532 1.424 
r95 528 506 0.120071 
r96 506 527 1.43 
r97 523 504 0.120236 
r98 504 522 1.434 
r99 501 576 6 
r100 559 498 6 
r101 496 498 6 
r102 496 501 4.89733 
r103 495 517 0.0331926 
r104 518 494 0.120071 
r105 494 495 1.409 
r106 491 556 6 
r107 489 517 0.0139768 
r108 489 491 4.03 
r109 488 517 0.0139768 
r110 569 487 0.0595122 
r111 486 488 0.0900144 
r112 486 487 3 
r113 484 562 1.27 
r114 474 485 0.0967764 
r115 465 484 0.0446983 
r116 485 465 1.359 
r117 474 449 0.0627027 
r118 442 478 1.85294 
r119 441 469 5.05882 
r120 440 469 5.05882 
r121 439 459 5.05882 
r122 438 459 5.05882 
r123 437 450 1.85294 
r124 432 442 3.88985 
r125 432 435 183.96 
r126 427 441 3.88985 
r127 427 430 183.96 
r128 422 440 3.88985 
r129 422 425 183.96 
r130 417 439 3.88985 
r131 417 420 183.96 
r132 412 438 3.88985 
r133 412 415 183.96 
r134 407 437 3.88985 
r135 407 410 183.96 
r136 350 354 5.05882 
r137 349 354 5.05882 
r138 344 350 3.88985 
r139 344 345 183.96 
r140 339 349 3.88985 
r141 339 340 183.96 
r142 469 298 0.00142683 
r143 597 298 3 
r144 354 287 0.00133393 
r145 600 287 3 
r146 354 262 0.0278113 
r147 540 262 3 
r148 478 251 0.00142683 
r149 604 251 3 
r150 229 233 5.05882 
r151 228 233 5.05882 
r152 223 229 3.88985 
r153 223 224 183.96 
r154 218 228 3.88985 
r155 218 219 183.96 
r156 459 177 0.00142683 
r157 587 177 3 
r158 233 166 0.00133393 
r159 590 166 3 
r160 233 141 0.0278113 
r161 592 141 3 
r162 130 469 0.0277856 
r163 595 130 3 
r164 108 112 5.05882 
r165 107 112 5.05882 
r166 102 108 3.88985 
r167 102 103 183.96 
r168 97 107 3.88985 
r169 97 98 183.96 
r170 450 56 0.00142683 
r171 569 56 3 
r172 112 45 0.00133393 
r173 580 45 3 
r174 112 20 0.0278113 
r175 582 20 3 
r176 9 459 0.0277856 
r177 585 9 3 
.ends

.subckt PM_APC3D01%AVSSO 171 334 497 557 596 601 606 611 616 621 626 804 813
+ 837 1112 1155 1159 1166 1198 1217 1225 1243 1245 1262 1283 1293 1299 1310 1313
+ 1355 1371 1374 1380
c0 1380 0 30.612f
c1 1366 0 1.09292f
c2 1362 0 7.96445f
c3 1355 0 19.2685f
c4 1347 0 6.82755f
c5 1341 0 6.82745f
c6 1336 0 6.8275f
c7 1330 0 6.82753f
c8 1325 0 6.82745f
c9 1313 0 4.4015f
c10 1310 0 8.65688e-20
c11 1305 0 8.33046f
c12 1299 0 0.832397f
c13 1293 0 1.37181f
c14 1290 0 0.364347f
c15 1278 0 1.87452f
c16 1257 0 4.18608f
c17 1245 0 1.539e-19
c18 1241 0 8.33046f
c19 1228 0 0.112427f
c20 1223 0 1.39563f
c21 1213 0 1.47552f
c22 1211 0 1.83166f
c23 1209 0 2.47923f
c24 1205 0 2.73162f
c25 1198 0 58.2122f
c26 1178 0 7.89048f
c27 1162 0 0.956258f
c28 1159 0 10.4333f
c29 1152 0 0.134705f
c30 1145 0 0.60063f
c31 1141 0 0.119334f
c32 1140 0 0.078048f
c33 1139 0 2.05476f
c34 1136 0 0.858136f
c35 1135 0 0.0598331f
c36 1130 0 17.2188f
c37 1129 0 1.79969f
c38 1122 0 0.593684f
c39 1120 0 3.09821f
c40 1118 0 0.280842f
c41 1117 0 0.593684f
c42 1116 0 3.10558f
c43 1115 0 0.280842f
c44 1111 0 0.359403f
c45 1048 0 8.45954f
c46 1045 0 7.30297f
c47 1037 0 2.03508f
c48 1028 0 2.34208f
c49 1026 0 0.104483f
c50 841 0 0.221977f
c51 837 0 0.673882f
c52 830 0 0.202863f
c53 826 0 0.0540954f
c54 825 0 0.071312f
c55 824 0 0.12123f
c56 823 0 0.0135406f
c57 813 0 0.546871f
c58 810 0 1.72466f
c59 808 0 2.05991f
c60 807 0 2.7416f
c61 804 0 0.448484f
c62 802 0 0.0543542f
c63 801 0 4.76495f
c64 798 0 0.0985033f
c65 797 0 7.30939f
c66 626 0 5.04097f
c67 621 0 1.75905f
c68 616 0 1.75905f
c69 611 0 1.76084f
c70 606 0 1.74258f
c71 601 0 1.74243f
c72 596 0 1.97099f
c73 557 0 10.7616f
c74 545 0 0.248679f
c75 544 0 4.14162f
c76 510 0 5.49219f
c77 412 0 14.0232f
c78 362 0 14.023f
c79 249 0 14.023f
c80 199 0 14.0231f
c81 36 0 14.0232f
c82 14 0 0.335839f
c83 13 0 0.104483f
c84 6 0 0.296855f
r85 1378 1380 0.00282778 
r86 1377 1378 0.355444 
r87 1374 1377 0.00283333 
r88 1370 1371 0.02 
r89 1369 1370 0.00262295 
r90 1368 1369 0.00622951 
r91 1366 1368 0.00590164 
r92 1354 1355 0.00405348 
r93 1351 1352 0.0220321 
r94 1350 1351 0.0683422 
r95 1349 1350 0.16246 
r96 1318 1319 0.0140961 
r97 1315 1354 0.6 
r98 1313 1315 0.415 
r99 1309 1310 0.0139394 
r100 1362 1307 0.0113501 
r101 1305 1307 0.0638298 
r102 1302 1352 1 
r103 1299 1302 0.22875 
r104 1296 1351 0.6 
r105 1293 1296 0.36625 
r106 1290 1358 6 
r107 1277 1278 0.0899598 
r108 1276 1277 0.0899598 
r109 1274 1276 0.0806426 
r110 1274 1349 0.0714286 
r111 1272 1274 0.00931727 
r112 1271 1272 0.0899598 
r113 1270 1271 0.0899598 
r114 1268 1270 0.0899598 
r115 1256 1257 0.0551111 
r116 1255 1256 0.0497778 
r117 1254 1255 0.0497778 
r118 1251 1252 0.0497778 
r119 1250 1251 0.0497778 
r120 1248 1250 0.0551111 
r121 1243 1309 0.0145455 
r122 1305 1243 0.0010101 
r123 1241 1243 0.0010101 
r124 1241 1318 0.0638298 
r125 1313 1238 0.386046 
r126 1238 1369 0.6 
r127 1223 1225 0.0635129 
r128 1220 1378 0.357143 
r129 1217 1220 0.396 
r130 1215 1354 0.00139037 
r131 1352 1215 0.0238503 
r132 1213 1215 1 
r133 1213 1217 0.259 
r134 1358 1211 1.872 
r135 1209 1211 6 
r136 1208 1228 0.0324531 
r137 1208 1209 2.837 
r138 1205 1350 0.545455 
r139 1203 1228 0.0324531 
r140 1203 1205 4.021 
r141 1195 1362 0.0327869 
r142 1195 1198 0.00607631 
r143 1343 1194 0.00301483 
r144 1194 1347 0.00301741 
r145 1192 1194 0.0266667 
r146 1192 1195 0.0288554 
r147 1283 1191 0.130435 
r148 1191 1341 0.00301741 
r149 1338 1191 0.00301741 
r150 1189 1191 0.0266667 
r151 1189 1192 0.0242129 
r152 1188 1189 0.0220071 
r153 1332 1187 0.00301483 
r154 1187 1336 0.00301741 
r155 1185 1187 0.0266667 
r156 1185 1188 0.00220584 
r157 1262 1184 0.130435 
r158 1184 1330 0.00301741 
r159 1327 1184 0.00301741 
r160 1182 1184 0.0266667 
r161 1182 1185 0.0242129 
r162 1321 1181 0.00301483 
r163 1181 1325 0.00301741 
r164 1179 1181 0.0266667 
r165 1179 1182 0.0242129 
r166 1178 1318 0.0113501 
r167 1176 1178 0.0327869 
r168 1176 1179 0.0288554 
r169 1175 1223 0.0200094 
r170 1175 1176 0.000602757 
r171 1225 1172 0.557515 
r172 1169 1377 0.357143 
r173 1166 1169 0.369 
r174 1164 1373 0.147888 
r175 1370 1164 0.0432787 
r176 1162 1164 1 
r177 1162 1166 0.286 
r178 1151 1349 0.0296257 
r179 1151 1152 0.00164682 
r180 1140 1141 0.0894737 
r181 1139 1140 0.0452993 
r182 1138 1152 0.0888808 
r183 1138 1139 4.23742 
r184 1135 1136 0.824 
r185 1134 1254 0.0241778 
r186 1252 1134 0.0256 
r187 1132 1134 0.0714286 
r188 1131 1366 0.02 
r189 1131 1132 0.116898 
r190 1130 1152 0.00164682 
r191 1130 1132 0.237112 
r192 1129 1135 0.0453233 
r193 1373 1129 3.92246 
r194 1124 1310 0.257576 
r195 1122 1305 0.235556 
r196 1121 1290 0.593103 
r197 1119 1245 0.257576 
r198 1119 1120 0.0955856 
r199 1117 1241 0.235556 
r200 1117 1118 0.0955856 
r201 1124 1116 0.0955856 
r202 1122 1115 0.0955856 
r203 1111 1121 0.0561509 
r204 1111 1112 0.0544444 
r205 1050 1315 0.56 
r206 1049 1313 0.969 
r207 1048 1243 0.117 
r208 1045 1243 0.117 
r209 1044 1278 0.02 
r210 1043 1277 0.02 
r211 1042 1276 0.02 
r212 1041 1272 0.02 
r213 1040 1271 0.02 
r214 1039 1270 0.02 
r215 1038 1268 0.02 
r216 1037 1257 0.02 
r217 1035 1255 0.02 
r218 1034 1254 0.02 
r219 1033 1252 0.02 
r220 1032 1251 0.02 
r221 1030 1243 0.117 
r222 1029 1243 0.117 
r223 1028 1248 0.02 
r224 1026 1029 0.0449819 
r225 1026 1118 0.334783 
r226 1025 1238 0.52093 
r227 1024 1313 0.901395 
r228 841 1145 3 
r229 832 1145 0.481053 
r230 1228 832 3 
r231 1141 830 3 
r232 828 837 0.108421 
r233 1136 828 2 
r234 826 841 0.101053 
r235 823 830 0.195294 
r236 812 826 0.0483064 
r237 812 813 0.372174 
r238 811 825 0.0461918 
r239 810 1050 0.0446983 
r240 810 811 1.254 
r241 809 824 0.0461918 
r242 808 1049 0.0446983 
r243 808 809 1.254 
r244 807 825 7.68051e-05 
r245 806 824 7.68051e-05 
r246 806 807 1.31797 
r247 803 823 0.0468981 
r248 803 804 0.302609 
r249 1025 802 0.0447743 
r250 801 825 0.0461918 
r251 801 802 4.962 
r252 1024 798 0.0447743 
r253 798 1313 3.632 
r254 797 824 0.0461918 
r255 797 1313 1.33 
r256 1038 626 0.35928 
r257 1039 621 0.35928 
r258 1040 616 0.35928 
r259 1041 611 0.35928 
r260 1042 606 0.35928 
r261 1043 601 0.35928 
r262 1044 596 0.35928 
r263 572 1037 0.5605 
r264 568 1256 0.02 
r265 1032 557 0.30632 
r266 1034 557 0.30632 
r267 1035 557 0.30632 
r268 568 557 0.30632 
r269 1033 557 0.30632 
r270 548 1250 0.02 
r271 548 557 0.30632 
r272 545 557 0.4715 
r273 544 572 0.0446983 
r274 544 557 0.4585 
r275 542 545 0.0446983 
r276 542 1028 0.5605 
r277 513 1159 0.0405758 
r278 1155 513 0.0427829 
r279 1188 513 0.00138889 
r280 1172 510 3.01605 
r281 510 1368 0.545455 
r282 1194 497 0.130435 
r283 1283 412 0.00313778 
r284 1341 412 0.0652174 
r285 497 402 0.0031351 
r286 1343 402 0.0652174 
r287 362 497 0.00314046 
r288 1347 362 0.0652174 
r289 1307 351 0.0140961 
r290 351 1309 0.0652174 
r291 1187 334 0.130435 
r292 1262 249 0.00313778 
r293 1330 249 0.0652174 
r294 334 239 0.0031351 
r295 1332 239 0.0652174 
r296 199 334 0.00314046 
r297 1336 199 0.0652174 
r298 189 1283 0.00313778 
r299 1338 189 0.0652174 
r300 1181 171 0.130435 
r301 86 1245 0.0139394 
r302 1243 86 0.0145455 
r303 1319 86 0.0652174 
r304 171 76 0.0031351 
r305 1321 76 0.0652174 
r306 36 171 0.00314046 
r307 1325 36 0.0652174 
r308 26 1262 0.00313778 
r309 1327 26 0.0652174 
r310 14 1116 0.176522 
r311 1048 14 0.0449819 
r312 13 1115 0.334783 
r313 13 1045 0.0449819 
r314 6 1120 0.176522 
r315 1030 6 0.0449819 
.ends

.subckt PM_APC3D01%U14_padr 39 47 108 111 112 135 156
c0 206 0 0.796035f
c1 203 0 5.80143f
c2 200 0 8.88434f
c3 197 0 15.6723f
c4 188 0 0.477442f
c5 184 0 0.635647f
c6 182 0 4.81487f
c7 179 0 0.195028f
c8 175 0 1.59307f
c9 169 0 1.07962f
c10 165 0 1.01301f
c11 156 0 1.04042f
c12 155 0 0.687597f
c13 135 0 1.69141f
c14 130 0 0.201552f
c15 127 0 0.0911814f
c16 121 0 9.40603f
c17 112 0 0.588668f
c18 111 0 1.13683f
c19 108 0 1.03075f
c20 93 0 0.103245f
c21 82 0 0.162957f
c22 69 0 0.562671f
c23 68 0 0.185751f
c24 65 0 1.16687f
c25 64 0 0.269503f
c26 60 0 0.0938165f
c27 56 0 0.074193f
c28 53 0 0.133139f
c29 52 0 0.151071f
c30 51 0 0.118045f
c31 47 0 1.27001f
c32 44 0 0.0440234f
c33 43 0 0.346246f
c34 39 0 2.2761f
r35 203 215 1.2 
r36 200 203 0.182857 
r37 194 197 12.176 
r38 186 188 0.093703 
r39 184 215 0.00201258 
r40 182 184 1.2 
r41 181 188 0.02 
r42 181 182 2.71486 
r43 197 179 6 
r44 177 179 6 
r45 175 177 0.293486 
r46 173 186 0.02 
r47 173 175 0.368914 
r48 155 200 0.223915 
r49 155 156 0.0147368 
r50 120 121 0.778667 
r51 103 112 51.6667 
r52 102 103 1.66667 
r53 130 93 0.27 
r54 92 111 168.333 
r55 92 93 3.92502 
r56 87 108 168.333 
r57 127 87 3.6393 
r58 206 82 6 
r59 175 79 6 
r60 206 79 1.6325 
r61 79 121 6 
r62 135 78 1.5325 
r63 169 78 6 
r64 169 75 1.625 
r65 75 120 6 
r66 74 120 11.1413 
r67 117 74 1.07733 
r68 165 74 6 
r69 165 71 2.0575 
r70 71 130 6 
r71 69 163 1.2525 
r72 69 194 6 
r73 68 127 0.2825 
r74 163 68 6 
r75 65 159 2.055 
r76 65 117 6 
r77 159 64 6 
r78 61 82 0.210526 
r79 60 61 0.02 
r80 58 60 0.13925 
r81 57 135 1.3775 
r82 54 56 0.12 
r83 54 64 0.3825 
r84 52 102 1.16667 
r85 52 53 0.114057 
r86 51 60 0.02 
r87 50 53 0.0448932 
r88 50 51 0.349474 
r89 46 58 0.02 
r90 46 47 1.2575 
r91 45 47 1.3775 
r92 44 57 0.0447588 
r93 43 45 0.0447588 
r94 43 44 0.544 
r95 56 39 2.375 
.ends

.subckt PM_APC3D01%U14_pgate_tol 18 37 68 87 118 137 168 187 293 295 297 299
+ 329 334 343 362 369 379 434 439
c0 613 0 0.380649f
c1 612 0 0.377769f
c2 611 0 0.355197f
c3 609 0 0.355968f
c4 608 0 0.355968f
c5 607 0 0.355968f
c6 606 0 0.365904f
c7 605 0 0.356603f
c8 604 0 0.355968f
c9 602 0 0.355968f
c10 601 0 0.33997f
c11 598 0 6.72325f
c12 596 0 15.7881f
c13 595 0 0.1693f
c14 590 0 0.154452f
c15 586 0 0.375351f
c16 585 0 0.375351f
c17 584 0 0.350303f
c18 582 0 0.350303f
c19 581 0 0.350303f
c20 580 0 0.350303f
c21 579 0 0.3593f
c22 577 0 0.350938f
c23 576 0 0.350204f
c24 574 0 0.350303f
c25 573 0 0.337089f
c26 570 0 6.49587f
c27 569 0 0.0176244f
c28 567 0 0.388988f
c29 562 0 5.93885f
c30 559 0 0.0954344f
c31 556 0 0.856994f
c32 554 0 1.85762f
c33 550 0 2.8046f
c34 543 0 0.178856f
c35 532 0 7.30146f
c36 527 0 1.55197f
c37 523 0 0.992618f
c38 521 0 0.946464f
c39 515 0 1.59843f
c40 506 0 0.86288f
c41 496 0 6.60957f
c42 449 0 1.10205f
c43 439 0 2.02934f
c44 434 0 0.0182406f
c45 432 0 1.43272f
c46 430 0 11.8195f
c47 415 0 0.680023f
c48 413 0 0.306015f
c49 409 0 0.162394f
c50 400 0 0.877268f
c51 399 0 0.243289f
c52 389 0 0.0446861f
c53 388 0 1.13935f
c54 385 0 1.24128f
c55 379 0 0.837714f
c56 369 0 1.31718f
c57 367 0 0.0476986f
c58 366 0 0.291356f
c59 362 0 1.3046f
c60 360 0 0.0614203f
c61 359 0 0.409834f
c62 348 0 0.0516602f
c63 347 0 0.30767f
c64 343 0 1.28493f
c65 341 0 0.0444582f
c66 340 0 0.343453f
c67 334 0 1.34547f
c68 329 0 1.29886f
c69 231 0 5.21264f
c70 229 0 4.91251f
c71 227 0 4.9071f
c72 225 0 5.1447f
c73 223 0 0.137152f
c74 221 0 0.105458f
c75 219 0 0.105458f
c76 217 0 0.124362f
c77 172 0 4.91251f
c78 170 0 0.105458f
c79 153 0 4.91388f
c80 151 0 0.105458f
c81 122 0 4.91388f
c82 120 0 0.105458f
c83 103 0 4.91707f
c84 101 0 0.106171f
c85 72 0 4.84413f
c86 70 0 0.105458f
c87 53 0 4.90644f
c88 51 0 0.105458f
c89 22 0 4.91388f
c90 20 0 0.105458f
c91 3 0 4.91388f
c92 1 0 0.105458f
r93 612 613 0.356585 
r94 611 612 0.346829 
r95 608 609 0.340098 
r96 607 608 0.368195 
r97 606 607 0.340098 
r98 605 606 0.368195 
r99 604 605 0.340098 
r100 601 602 0.338146 
r101 593 595 6 
r102 593 596 0.481333 
r103 588 590 6 
r104 585 586 0.356585 
r105 584 585 0.346829 
r106 581 582 0.340098 
r107 580 581 0.368195 
r108 579 580 0.340098 
r109 576 577 0.340098 
r110 573 574 0.338146 
r111 565 567 3 
r112 562 565 4.24 
r113 562 595 6 
r114 558 569 0.00945187 
r115 558 559 0.0733333 
r116 554 556 6 
r117 553 569 0.0331099 
r118 553 554 2.79676 
r119 550 590 6 
r120 548 569 0.0331099 
r121 548 550 4.07459 
r122 545 573 0.229756 
r123 570 545 0.141366 
r124 543 545 6 
r125 543 547 0.0447619 
r126 543 542 0.0419048 
r127 542 556 0.414634 
r128 540 611 0.22878 
r129 609 540 0.139415 
r130 538 540 1.5 
r131 537 604 0.22878 
r132 602 537 0.139415 
r133 535 537 6 
r134 535 538 2.12488 
r135 534 601 0.230732 
r136 598 534 0.14039 
r137 532 534 6 
r138 532 535 0.708293 
r139 531 532 0.327805 
r140 522 567 0.0324595 
r141 521 531 0.0446983 
r142 521 522 0.33122 
r143 506 508 0.3 
r144 504 584 0.22878 
r145 582 504 0.139415 
r146 502 504 2 
r147 501 579 0.22878 
r148 577 501 0.139415 
r149 499 501 6 
r150 499 502 1.41659 
r151 498 576 0.227805 
r152 574 498 0.14039 
r153 496 498 6 
r154 496 499 0.707317 
r155 547 496 0.662439 
r156 449 491 3 
r157 432 434 2.3375 
r158 429 430 0.946667 
r159 428 429 6.84933 
r160 491 415 0.486667 
r161 559 415 3 
r162 527 413 6 
r163 527 410 2.59 
r164 410 596 6 
r165 523 409 6 
r166 523 406 2.3425 
r167 406 430 6 
r168 439 405 2.3375 
r169 515 405 6 
r170 515 402 2.35 
r171 402 429 6 
r172 400 513 1.55375 
r173 400 428 6 
r174 513 399 6 
r175 397 428 0.946667 
r176 506 397 6 
r177 395 593 8.45867 
r178 588 395 4.72533 
r179 508 395 6 
r180 508 392 1.26125 
r181 392 432 6 
r182 390 389 0.08 
r183 389 413 0.41 
r184 387 409 0.215 
r185 387 388 0.0302706 
r186 386 439 2.0425 
r187 384 399 0.215 
r188 384 385 0.0302706 
r189 383 434 2.0425 
r190 390 379 1.1475 
r191 368 369 2.03875 
r192 366 388 0.0119838 
r193 366 367 0.585714 
r194 361 367 0.0449572 
r195 361 362 2.06375 
r196 360 386 0.0446983 
r197 359 368 0.0446983 
r198 359 360 0.51 
r199 347 385 0.0119838 
r200 347 348 0.585714 
r201 342 348 0.0449572 
r202 342 343 2.07875 
r203 341 383 0.0446983 
r204 340 349 0.0446983 
r205 340 341 0.51 
r206 333 449 0.035618 
r207 333 334 0.62875 
r208 349 329 2.02375 
r209 232 613 2.87059 
r210 231 299 394.95 
r211 231 232 4.2601 
r212 230 612 2.86471 
r213 229 297 394.95 
r214 229 230 4.2601 
r215 228 601 2.44118 
r216 227 295 394.95 
r217 227 228 4.2601 
r218 226 598 2.44118 
r219 225 293 394.95 
r220 225 226 4.2601 
r221 224 586 2.87059 
r222 223 299 394.95 
r223 223 224 4.2601 
r224 222 585 2.86471 
r225 221 297 394.95 
r226 221 222 4.2601 
r227 220 573 2.44118 
r228 219 295 394.95 
r229 219 220 4.2601 
r230 218 570 2.44118 
r231 217 293 394.95 
r232 217 218 4.2601 
r233 173 611 2.58824 
r234 172 187 394.95 
r235 172 173 4.2601 
r236 171 584 2.58824 
r237 170 187 394.95 
r238 170 171 4.2601 
r239 154 609 2.58824 
r240 153 168 394.95 
r241 153 154 4.2601 
r242 152 582 2.58824 
r243 151 168 394.95 
r244 151 152 4.2601 
r245 123 608 2.58824 
r246 122 137 394.95 
r247 122 123 4.2601 
r248 121 581 2.58824 
r249 120 137 394.95 
r250 120 121 4.2601 
r251 104 607 2.58824 
r252 103 118 394.95 
r253 103 104 4.2601 
r254 102 580 2.58824 
r255 101 118 394.95 
r256 101 102 4.2601 
r257 73 606 2.58824 
r258 72 87 394.95 
r259 72 73 4.2601 
r260 71 579 2.58824 
r261 70 87 394.95 
r262 70 71 4.2601 
r263 54 605 2.58824 
r264 53 68 394.95 
r265 53 54 4.2601 
r266 52 577 2.58824 
r267 51 68 394.95 
r268 51 52 4.2601 
r269 23 604 2.58824 
r270 22 37 394.95 
r271 22 23 4.2601 
r272 21 576 2.58824 
r273 20 37 394.95 
r274 20 21 4.2601 
r275 4 602 2.58824 
r276 3 18 394.95 
r277 3 4 4.2601 
r278 2 574 2.58824 
r279 1 18 394.95 
r280 1 2 4.2601 
.ends

.subckt PM_APC3D01%AVDDO 1215 1222 1229 1236 1243 1250 1257 1337 1342 1378 1656
+ 1660 1663 1667 1675 1714 1737 1749 1754 1765 1783 1803 1809 1815 1836 1847 1862
+ 1898 1903
c0 1903 0 18.1607f
c1 1896 0 3.16f
c2 1883 0 6.63784f
c3 1873 0 6.96217f
c4 1865 0 0.321128f
c5 1862 0 41.9749f
c6 1824 0 6.74445f
c7 1815 0 1.72457f
c8 1809 0 1.91331f
c9 1803 0 2.54594f
c10 1785 0 6.8084f
c11 1783 0 5.89528f
c12 1763 0 0.240432f
c13 1761 0 7.3217f
c14 1758 0 6.97817f
c15 1746 0 0.259072f
c16 1744 0 5.25346f
c17 1734 0 0.958491f
c18 1729 0 0.155556f
c19 1726 0 25.2421f
c20 1719 0 29.5184f
c21 1714 0 55.4227f
c22 1712 0 1.58441f
c23 1690 0 6.82556f
c24 1682 0 13.2246f
c25 1672 0 0.706379f
c26 1667 0 2.54203f
c27 1660 0 2.10372f
c28 1633 0 5.08745f
c29 1632 0 0.0615437f
c30 1628 0 0.088292f
c31 1625 0 0.417641f
c32 1619 0 0.354106f
c33 1592 0 0.149123f
c34 1591 0 9.24237f
c35 1565 0 0.088292f
c36 1564 0 8.7001f
c37 1561 0 2.7039f
c38 1559 0 0.417641f
c39 1384 0 0.26317f
c40 1378 0 0.482486f
c41 1366 0 0.249083f
c42 1364 0 0.17311f
c43 1363 0 0.557887f
c44 1362 0 5.9594f
c45 1358 0 0.215726f
c46 1350 0 0.0445388f
c47 1349 0 0.13214f
c48 1348 0 6.44052f
c49 1347 0 0.0900764f
c50 1342 0 1.42447f
c51 1337 0 0.932712f
c52 1215 0 0.00279171f
c53 1178 0 9.2448f
c54 1166 0 0.449993f
c55 1159 0 11.5383f
c56 1157 0 18.6958f
c57 1155 0 18.6958f
c58 1153 0 18.7377f
c59 1151 0 18.6958f
c60 1149 0 18.6958f
c61 1147 0 11.1391f
c62 1124 0 0.0982204f
c63 1123 0 3.65614f
c64 1120 0 0.104331f
c65 1119 0 5.90629f
c66 438 0 0.202855f
c67 17 0 0.0999578f
c68 16 0 4.52507f
c69 15 0 0.427759f
c70 7 0 0.0999578f
c71 6 0 4.5799f
r72 1898 1901 0.00394881 
r73 1886 1887 0.279231 
r74 1885 1886 0.255346 
r75 1883 1885 3.84615e-05 
r76 1876 1877 0.273962 
r77 1875 1876 0.250528 
r78 1873 1875 3.77358e-05 
r79 1861 1862 0.00332381 
r80 1860 1861 0.00190476 
r81 1856 1857 0.013619 
r82 1855 1856 0.0328571 