* File: pvda.dist.sp.pex
* Created: Sun Jul  4 13:18:02 2010
* Program "Calibre xRC"
* Version "v2008.4_19.14"
* Nominal Temperature: 27C
* Circuit Temperature: 27C
* 
.subckt PM_PVDA%U30_U29_c2 78 83 168 173 258 263 282 332 337 342 347 352 358
+ 425
c0 507 0 0.781617f
c1 503 0 0.763781f
c2 499 0 0.778731f
c3 491 0 0.783648f
c4 487 0 0.763781f
c5 470 0 0.516158f
c6 466 0 0.64386f
c7 457 0 0.666551f
c8 450 0 0.869073f
c9 448 0 9.55886f
c10 446 0 5.95937f
c11 428 0 9.62277f
c12 427 0 0.832749f
c13 425 0 0.324103f
c14 423 0 1.9558f
c15 420 0 1.51952f
c16 417 0 0.514926f
c17 416 0 0.281125f
c18 415 0 1.51515f
c19 411 0 0.0550814f
c20 410 0 0.280205f
c21 409 0 1.51545f
c22 405 0 0.514944f
c23 404 0 0.281199f
c24 403 0 1.5151f
c25 399 0 0.0550814f
c26 398 0 0.280205f
c27 397 0 1.51537f
c28 392 0 0.280214f
c29 391 0 1.52014f
c30 383 0 0.0547286f
c31 381 0 0.0547286f
c32 379 0 0.0548462f
c33 377 0 0.0547286f
c34 375 0 0.0547286f
c35 373 0 0.236893f
c36 371 0 5.15834f
c37 370 0 0.0489987f
c38 364 0 0.114403f
c39 363 0 0.576036f
c40 362 0 0.114963f
c41 361 0 0.576036f
c42 360 0 0.114963f
c43 359 0 0.522495f
c44 358 0 2.82604f
c45 352 0 2.77447f
c46 347 0 2.77447f
c47 342 0 2.77447f
c48 337 0 2.77447f
c49 332 0 2.82572f
c50 282 0 2.5173f
c51 263 0 2.77447f
c52 262 0 0.114963f
c53 258 0 2.77447f
c54 257 0 0.114963f
c55 173 0 2.77447f
c56 172 0 0.114963f
c57 168 0 2.77447f
c58 167 0 0.114963f
c59 83 0 2.77447f
c60 82 0 0.114963f
c61 78 0 2.77447f
c62 77 0 0.114963f
r63 493 519 1.5 
r64 491 517 0.217248 
r65 489 491 3 
r66 485 487 3 
r67 480 507 3 
r68 477 503 3 
r69 472 499 3 
r70 470 472 0.0555181 
r71 455 457 0.0942857 
r72 451 453 1.5 
r73 519 450 0.171385 
r74 448 450 1.5 
r75 448 451 0.827317 
r76 447 457 0.02 
r77 447 448 1.81626 
r78 446 455 0.02 
r79 445 446 1.51788 
r80 443 517 3 
r81 487 441 0.226603 
r82 439 441 3 
r83 439 443 0.662105 
r84 507 438 0.218249 
r85 436 438 3 
r86 436 439 0.663158 
r87 503 435 0.226603 
r88 433 435 3 
r89 433 436 0.661754 
r90 499 431 0.226603 
r91 429 431 3 
r92 429 433 0.662456 
r93 428 445 0.0450103 
r94 428 443 0.321404 
r95 427 453 0.0810627 
r96 423 425 3 
r97 422 427 0.0447229 
r98 422 423 0.536129 
r99 466 420 0.0385542 
r100 417 489 0.0555181 
r101 416 489 0.0501205 
r102 416 417 0.00144578 
r103 417 415 0.0385542 
r104 411 485 0.00337349 
r105 410 485 0.0501205 
r106 410 411 0.00144578 
r107 411 409 0.0385542 
r108 405 480 0.0550361 
r109 404 480 0.0506024 
r110 404 405 0.00144578 
r111 405 403 0.0385542 
r112 399 477 0.00337349 
r113 398 477 0.0501205 
r114 398 399 0.00144578 
r115 399 397 0.0385542 
r116 392 472 0.0501205 
r117 392 470 0.00144578 
r118 470 391 0.0385542 
r119 417 383 0.0385542 
r120 420 383 0.679024 
r121 411 381 0.0385542 
r122 415 381 0.679024 
r123 405 379 0.0385542 
r124 409 379 0.679024 
r125 399 377 0.0385542 
r126 403 377 0.679024 
r127 470 375 0.0385542 
r128 397 375 0.679024 
r129 373 388 0.0957292 
r130 391 373 0.679024 
r131 371 493 0.118347 
r132 370 493 0.562204 
r133 364 466 2.14706 
r134 363 411 5.05882 
r135 362 411 5.05882 
r136 361 399 5.05882 
r137 360 399 5.05882 
r138 359 388 2.14706 
r139 354 364 4.2601 
r140 354 358 229.95 
r141 349 363 4.2601 
r142 349 352 229.95 
r143 344 362 4.2601 
r144 344 347 229.95 
r145 339 361 4.2601 
r146 339 342 229.95 
r147 334 360 4.2601 
r148 334 337 229.95 
r149 329 359 4.2601 
r150 329 332 229.95 
r151 371 287 0.0954001 
r152 287 282 1.9113 
r153 281 370 0.0954001 
r154 281 282 1.9113 
r155 268 417 5.05882 
r156 267 417 5.05882 
r157 262 268 4.2601 
r158 262 263 229.95 
r159 257 267 4.2601 
r160 257 258 229.95 
r161 178 405 5.05882 
r162 177 405 5.05882 
r163 172 178 4.2601 
r164 172 173 229.95 
r165 167 177 4.2601 
r166 167 168 229.95 
r167 88 470 5.05882 
r168 87 470 5.05882 
r169 82 88 4.2601 
r170 82 83 229.95 
r171 77 87 4.2601 
r172 77 78 229.95 
.ends

.subckt PM_PVDA%VDDO 88 167 296 375 504 583 704 1544 1549 1552 1556 1559 1564
+ 1576 1580 1594 1634 1639 1648 1652 1661 1667 1673 1679 1685 1691 1697 1699 1733
+ 1741 1747
c0 1760 0 19.8042f
c1 1750 0 10.0006f
c2 1747 0 58.5277f
c3 1745 0 159.215f
c4 1741 0 29.7902f
c5 1726 0 58.7088f
c6 1721 0 0.326396f
c7 1720 0 0.336331f
c8 1718 0 0.263758f
c9 1716 0 13.3558f
c10 1712 0 2.04398f
c11 1699 0 0.0013388f
c12 1697 0 7.89418f
c13 1691 0 12.944f
c14 1685 0 12.944f
c15 1679 0 12.9496f
c16 1673 0 12.944f
c17 1667 0 12.9464f
c18 1661 0 7.9808f
c19 1652 0 0.260284f
c20 1644 0 10.4235f
c21 1638 0 1.86405f
c22 1630 0 30.3402f
c23 1629 0 5.66618f
c24 1626 0 163.067f
c25 1611 0 14.9638f
c26 1609 0 17.5612f
c27 1597 0 15.3309f
c28 1594 0 24.729f
c29 1564 0 2.82106f
c30 1556 0 1.49791f
c31 1549 0 10.8715f
c32 1529 0 0.779454f
c33 1528 0 4.19383f
c34 1525 0 0.108751f
c35 1495 0 0.152029f
c36 1462 0 0.10314f
c37 1461 0 3.96724f
c38 1460 0 4.55828f
c39 1459 0 0.119198f
c40 1457 0 0.10314f
c41 1242 0 5.81235f
c42 1223 0 0.11068f
c43 1222 0 2.74555f
c44 1191 0 5.12412f
c45 704 0 18.6413f
c46 679 0 0.519607f
c47 667 0 0.573884f
c48 658 0 0.403928f
c49 656 0 0.287747f
c50 644 0 7.52879f
c51 583 0 3.33866f
c52 527 0 6.9422f
c53 504 0 3.33849f
c54 448 0 6.9422f
c55 381 0 82.0014f
c56 375 0 3.33866f
c57 319 0 6.9422f
c58 296 0 3.33866f
c59 240 0 6.9422f
c60 167 0 3.33849f
c61 111 0 6.9422f
c62 88 0 3.33866f
c63 32 0 6.9422f
r64 1760 1761 0.118407 
r65 1759 1760 0.118407 
r66 1756 1757 0.118407 
r67 1755 1756 0.118407 
r68 1750 1752 0.00747266 
r69 1746 1747 0.000593149 
r70 1745 1746 0.0669731 
r71 1740 1741 0.00347712 
r72 1739 1740 0.118388 
r73 1738 1739 0.160741 
r74 1737 1738 0.257952 
r75 1736 1737 0.0210806 
r76 1733 1736 0.00480174 
r77 1726 1727 0.0171733 
r78 1725 1726 0.016369 
r79 1716 1718 0.0669174 
r80 1709 1712 0.0147126 
r81 1709 1739 0.136364 
r82 1701 1752 0.12 
r83 1699 1701 0.024 
r84 1694 1697 0.0369231 
r85 1688 1691 0.0256489 
r86 1682 1685 0.0256489 
r87 1676 1679 0.0256489 
r88 1670 1673 0.0256489 
r89 1670 1727 0.113208 
r90 1664 1667 0.0256489 
r91 1664 1726 0.113208 
r92 1658 1661 0.0369231 
r93 1652 1721 3 
r94 1646 1759 0.0549389 
r95 1757 1646 0.0634682 
r96 1644 1646 0.0181818 
r97 1638 1641 0.00046332 
r98 1638 1640 0.182694 
r99 1638 1639 0.02 
r100 1634 1636 0.1811 
r101 1629 1648 0.0539366 
r102 1629 1630 1.4461 
r103 1627 1738 0.0190476 
r104 1626 1644 0.00937584 
r105 1626 1627 0.125032 
r106 1624 1626 0.146839 
r107 1624 1750 0.0288462 
r108 1619 1726 0.113208 
r109 1619 1623 0.000120846 
r110 1619 1727 0.113208 
r111 1658 1618 0.113208 
r112 1618 1725 0.00080402 
r113 1752 1618 0.00309784 
r114 1619 1618 0.113208 
r115 1721 1615 0.00069869 
r116 1613 1615 3 
r117 1613 1619 0.10715 
r118 1612 1641 0.02 
r119 1612 1613 0.00294058 
r120 1611 1648 0.0234268 
r121 1611 1623 0.109003 
r122 1640 1609 2.79362 
r123 1604 1605 0.00752787 
r124 1603 1604 0.021023 
r125 1601 1603 0.000537705 
r126 1601 1745 0.00162999 
r127 1599 1601 0.000537705 
r128 1597 1599 0.0285508 
r129 1676 1593 0.113208 
r130 1727 1593 0.0171733 
r131 1682 1591 0.113208 
r132 1593 1591 0.0171733 
r133 1688 1589 0.113208 
r134 1591 1589 0.0171733 
r135 1694 1587 0.113208 
r136 1589 1587 0.0171733 
r137 1585 1587 0.113208 
r138 1585 1589 0.113208 
r139 1585 1591 0.113208 
r140 1585 1593 0.113208 
r141 1585 1594 0.107847 
r142 1580 1583 0.0110207 
r143 1576 1578 0.1811 
r144 1562 1564 0.0542058 
r145 1559 1562 0.0536763 
r146 1636 1548 0.5 
r147 1548 1549 0.00284461 
r148 1714 1541 0.0349515 
r149 1539 1541 1.2 
r150 1714 1537 2 
r151 1537 1539 0.0401487 
r152 1529 1541 0.090356 
r153 1716 1528 0.018738 
r154 1525 1714 0.0149126 
r155 1525 1716 0.0311715 
r156 1523 1529 0.0468467 
r157 1523 1716 1.47695 
r158 1528 1522 0.1504 
r159 1716 1522 0.2136 
r160 1498 1716 0.2136 
r161 1720 1498 0.1392 
r162 1718 1495 0.18 
r163 1463 1495 0.0447329 
r164 1463 1716 1.51848 
r165 1462 1716 1.51162 
r166 1462 1461 0.0447329 
r167 1461 1716 0.2648 
r168 1460 1701 2.167 
r169 1459 1699 2.181 
r170 1458 1716 0.2664 
r171 1457 1458 0.0447329 
r172 1457 1716 1.51162 
r173 1699 1269 0.159252 
r174 1242 1699 0.159252 
r175 1241 1269 0.19514 
r176 1460 1240 0.045921 
r177 1240 1242 0.19514 
r178 1223 1699 2.11181 
r179 1222 1241 0.0456322 
r180 1222 1699 2.10217 
r181 1699 1218 0.159252 
r182 1191 1699 0.159252 
r183 1190 1223 0.0456322 
r184 1190 1218 0.19514 
r185 1189 1459 0.045921 
r186 1189 1191 0.19514 
r187 704 1712 3.53933 
r188 683 1737 0.02 
r189 683 684 0.758885 
r190 679 1634 0.1699 
r191 679 1740 1.5 
r192 677 1585 0.000564315 
r193 1583 677 0.0963319 
r194 677 1562 0.00150602 
r195 684 676 0.510769 
r196 1583 676 0.2 
r197 674 1556 0.0653756 
r198 1552 674 0.0655388 
r199 1623 674 0.00181159 
r200 1641 671 0.0585483 
r201 671 684 0.2 
r202 670 1548 0.468512 
r203 1544 670 0.00395612 
r204 1578 670 0.5 
r205 667 1576 0.1699 
r206 667 1736 1.5 
r207 663 666 0.0022831 
r208 1605 663 0.0375475 
r209 663 1746 0.00547945 
r210 1533 659 3 
r211 659 1720 0.0235276 
r212 1716 659 0.00162712 
r213 1539 658 0.000594796 
r214 1630 658 0.75 
r215 659 656 3 
r216 656 1533 0.0348201 
r217 1609 656 1.5 
r218 1603 654 0.00210084 
r219 652 654 0.000537705 
r220 1599 652 0.00210084 
r221 654 650 0.0105115 
r222 1604 650 0.00712251 
r223 646 666 0.0187738 
r224 650 646 0.00376393 
r225 1605 646 0.00712251 
r226 644 652 0.0142754 
r227 1597 644 0.00356125 
r228 590 1760 0.0220132 
r229 590 591 0.319822 
r230 583 541 0.00249413 
r231 591 541 0.0425532 
r232 527 583 0.00249413 
r233 591 527 0.0425532 
r234 511 1761 0.0220132 
r235 511 512 0.319822 
r236 504 462 0.00249413 
r237 512 462 0.0425532 
r238 448 504 0.00249413 
r239 512 448 0.0425532 
r240 382 1757 0.0220132 
r241 382 383 0.319822 
r242 381 512 0.345778 
r243 381 591 0.345778 
r244 1747 381 0.0124825 
r245 381 383 0.345778 
r246 375 333 0.00249413 
r247 383 333 0.0425532 
r248 319 375 0.00249413 
r249 383 319 0.0425532 
r250 381 304 0.345778 
r251 303 1759 0.0220132 
r252 303 304 0.319822 
r253 296 254 0.00249413 
r254 304 254 0.0425532 
r255 240 296 0.00249413 
r256 304 240 0.0425532 
r257 381 175 0.345778 
r258 174 1755 0.0220132 
r259 174 175 0.319822 
r260 167 125 0.00249413 
r261 175 125 0.0425532 
r262 111 167 0.00249413 
r263 175 111 0.0425532 
r264 381 96 0.345778 
r265 95 1756 0.0220132 
r266 95 96 0.319822 
r267 88 46 0.00249413 
r268 96 46 0.0425532 
r269 32 88 0.00249413 
r270 96 32 0.0425532 
.ends

.subckt PM_PVDA%noxref_3 8 15
c0 14 0 0.710808f
c1 13 0 0.329212f
c2 8 0 0.303059f
r3 14 16 0.02 
r4 13 15 0.0300645 
r5 13 14 0.232258 
r6 16 8 0.0278652 
.ends

.subckt PM_PVDA%U19_U22$11_gate 413 415 417 419 421 423 425 427 429 431 433 436
+ 467
c0 522 0 0.351289f
c1 521 0 0.351289f
c2 520 0 0.351289f
c3 519 0 0.351289f
c4 518 0 0.351289f
c5 517 0 0.332504f
c6 516 0 0.351678f
c7 515 0 0.351289f
c8 514 0 0.351289f
c9 513 0 0.344401f
c10 512 0 0.366396f
c11 510 0 7.10502f
c12 506 0 0.351256f
c13 505 0 0.35479f
c14 504 0 0.35479f
c15 503 0 0.35479f
c16 502 0 0.35479f
c17 501 0 0.335276f
c18 500 0 0.35518f
c19 499 0 0.35479f
c20 498 0 0.35479f
c21 497 0 0.347252f
c22 496 0 0.354918f
c23 494 0 7.7535f
c24 483 0 0.338983f
c25 481 0 1.49111f
c26 475 0 0.403336f
c27 473 0 1.22711f
c28 470 0 1.68076f
c29 467 0 0.257955f
c30 463 0 8.24342f
c31 412 0 4.08967f
c32 400 0 0.139885f
c33 308 0 0.351289f
c34 305 0 0.35479f
c35 277 0 3.8463f
c36 275 0 0.107369f
c37 241 0 3.8463f
c38 239 0 0.107369f
c39 223 0 3.8463f
c40 221 0 0.107369f
c41 187 0 3.8463f
c42 185 0 0.107369f
c43 169 0 3.84838f
c44 167 0 0.107877f
c45 133 0 3.84061f
c46 131 0 0.107369f
c47 115 0 3.84568f
c48 113 0 0.107369f
c49 79 0 3.8463f
c50 77 0 0.107369f
c51 61 0 3.8476f
c52 59 0 0.107801f
c53 25 0 3.85163f
c54 23 0 0.107369f
c55 7 0 4.08734f
c56 5 0 0.11906f
r57 521 522 0.343512 
r58 520 521 0.36478 
r59 519 520 0.343512 
r60 518 519 0.36478 
r61 517 518 0.343512 
r62 516 517 0.36478 
r63 515 516 0.343512 
r64 514 515 0.36478 
r65 513 514 0.343512 
r66 512 513 0.36478 
r67 510 512 0.0308293 
r68 506 507 0.18878 
r69 505 506 0.277073 
r70 504 505 0.43122 
r71 503 504 0.277073 
r72 502 503 0.43122 
r73 501 502 0.277073 
r74 500 501 0.43122 
r75 499 500 0.277073 
r76 498 499 0.43122 
r77 497 498 0.277073 
r78 496 497 0.43122 
r79 494 496 0.00390244 
r80 486 510 3 
r81 483 531 0.00106667 
r82 481 483 3 
r83 481 486 0.811515 
r84 478 494 3 
r85 475 527 0.00592593 
r86 473 475 3 
r87 473 478 0.768485 
r88 470 507 3 
r89 465 467 3 
r90 465 470 0.349037 
r91 464 527 0.02 
r92 463 531 0.02 
r93 463 464 4.55722 
r94 412 436 304.95 
r95 400 436 304.95 
r96 522 308 0.36478 
r97 507 305 0.242439 
r98 296 308 2.44118 
r99 412 296 4.2601 
r100 294 305 2.44118 
r101 400 294 4.2601 
r102 278 522 2.44118 
r103 277 433 304.95 
r104 277 278 4.2601 
r105 276 506 2.44118 
r106 275 433 304.95 
r107 275 276 4.2601 
r108 242 521 2.44118 
r109 241 431 304.95 
r110 241 242 4.2601 
r111 240 505 2.44118 
r112 239 431 304.95 
r113 239 240 4.2601 
r114 224 520 2.44118 
r115 223 429 304.95 
r116 223 224 4.2601 
r117 222 504 2.44118 
r118 221 429 304.95 
r119 221 222 4.2601 
r120 188 519 2.44118 
r121 187 427 304.95 
r122 187 188 4.2601 
r123 186 503 2.44118 
r124 185 427 304.95 
r125 185 186 4.2601 
r126 170 518 2.44118 
r127 169 425 304.95 
r128 169 170 4.2601 
r129 168 502 2.44118 
r130 167 425 304.95 
r131 167 168 4.2601 
r132 134 517 2.44118 
r133 133 423 304.95 
r134 133 134 4.2601 
r135 132 501 2.44118 
r136 131 423 304.95 
r137 131 132 4.2601 
r138 116 516 2.44118 
r139 115 421 304.95 
r140 115 116 4.2601 
r141 114 500 2.44118 
r142 113 421 304.95 
r143 113 114 4.2601 
r144 80 515 2.44118 
r145 79 419 304.95 
r146 79 80 4.2601 
r147 78 499 2.44118 
r148 77 419 304.95 
r149 77 78 4.2601 
r150 62 514 2.44118 
r151 61 417 304.95 
r152 61 62 4.2601 
r153 60 498 2.44118 
r154 59 417 304.95 
r155 59 60 4.2601 
r156 26 513 2.44118 
r157 25 415 304.95 
r158 25 26 4.2601 
r159 24 497 2.44118 
r160 23 415 304.95 
r161 23 24 4.2601 
r162 8 512 2.44118 
r163 7 413 304.95 
r164 7 8 4.2601 
r165 6 496 2.44118 
r166 5 413 304.95 
r167 5 6 4.2601 
.ends

.subckt PM_PVDA%noxref_5 8 15
c0 14 0 0.651319f
c1 13 0 0.291795f
c2 8 0 0.276132f
r3 14 16 0.02 
r4 13 15 0.0300645 
r5 13 14 0.232258 
r6 16 8 0.0278652 
.ends

.subckt PM_PVDA%VSSO 171 334 497 1055 1058 1061 1064 1067 1070 1073 1076 1169
+ 1191 1195 1198 1204 1208 1255 1260 1271 1281 1286 1291 1296 1301 1306 1311 1316
+ 1319 1327 1336 1347 1360 1373 1383
c0 1419 0 6.75797f
c1 1415 0 7.18658f
c2 1409 0 7.18669f
c3 1404 0 7.1866f
c4 1398 0 7.18669f
c5 1393 0 7.18073f
c6 1383 0 37.3336f
c7 1372 0 0.865724f
c8 1368 0 7.09066f
c9 1360 0 1.24866f
c10 1346 0 0.939514f
c11 1319 0 1.92885f
c12 1316 0 1.14196f
c13 1311 0 1.14088f
c14 1306 0 1.14088f
c15 1301 0 1.16337f
c16 1296 0 1.14088f
c17 1291 0 1.14196f
c18 1281 0 14.4305f
c19 1271 0 1.95023f
c20 1269 0 0.33337f
c21 1265 0 7.34223f
c22 1259 0 2.27171f
c23 1253 0 1.64389f
c24 1252 0 1.0425f
c25 1251 0 1.02374f
c26 1249 0 9.98076f
c27 1244 0 1.88571f
c28 1234 0 12.4486f
c29 1212 0 56.3274f
c30 1206 0 1.10174f
c31 1204 0 29.1725f
c32 1195 0 10.5944f
c33 1186 0 0.385397f
c34 1184 0 11.922f
c35 1182 0 1.61598f
c36 1179 0 1.68052f
c37 1169 0 0.246893f
c38 1167 0 0.528411f
c39 1166 0 0.235885f
c40 1165 0 7.19069f
c41 1161 0 2.20294f
c42 1159 0 12.0374f
c43 1156 0 12.0231f
c44 1153 0 12.0257f
c45 1150 0 12.0722f
c46 1147 0 12.0231f
c47 1145 0 11.3021f
c48 1126 0 11.6537f
c49 1122 0 1.38787f
c50 1112 0 0.40025f
c51 1111 0 0.718873f
c52 1109 0 6.85849f
c53 1100 0 5.15076f
c54 1098 0 0.380612f
c55 1097 0 0.711402f
c56 1096 0 0.257401f
c57 1095 0 5.17984f
c58 1092 0 1.78968f
c59 1090 0 1.8028f
c60 1088 0 1.7803f
c61 1086 0 1.82148f
c62 1084 0 1.78702f
c63 1082 0 1.78525f
c64 1080 0 1.78525f
c65 1078 0 1.78644f
c66 1076 0 1.94986f
c67 1073 0 1.93006f
c68 1070 0 1.93006f
c69 1067 0 1.93006f
c70 1064 0 1.97833f
c71 1061 0 1.97872f
c72 1058 0 1.94234f
c73 1055 0 1.95934f
c74 1024 0 0.10955f
c75 1023 0 9.99221f
c76 993 0 0.228731f
c77 990 0 2.05586f
c78 989 0 1.89141f
c79 987 0 7.03489f
c80 600 0 0.295655f
c81 599 0 5.70599f
c82 523 0 6.13872f
c83 512 0 2.7037f
c84 510 0 2.51226f
c85 506 0 0.885278f
c86 412 0 13.9207f
c87 362 0 13.9208f
c88 249 0 13.9207f
c89 199 0 13.9208f
c90 36 0 13.9209f
c91 14 0 0.146306f
c92 8 0 0.146306f
r93 1380 1381 0.067754 
r94 1379 1380 0.310588 
r95 1378 1379 0.108235 
r96 1377 1378 0.0612834 
r97 1371 1372 0.0113242 
r98 1367 1368 0.0551111 
r99 1366 1367 0.0497778 
r100 1365 1366 0.0497778 
r101 1364 1365 0.0497778 
r102 1362 1364 0.0311111 
r103 1362 1380 0.0413793 
r104 1360 1362 0.00284444 
r105 1359 1360 0.0158222 
r106 1358 1359 0.0497778 
r107 1357 1358 0.0497778 
r108 1356 1357 0.0497778 
r109 1354 1356 0.0551111 
r110 1344 1346 0.0606061 
r111 1344 1347 0.0012844 
r112 1343 1344 0.0113761 
r113 1322 1379 0.04 
r114 1319 1322 0.29128 
r115 1284 1286 0.00127854 
r116 1284 1372 0.0606061 
r117 1281 1343 0.013211 
r118 1265 1371 0.026484 
r119 1263 1265 0.0327869 
r120 1262 1263 0.0380567 
r121 1259 1262 0.008583 
r122 1259 1260 0.02 
r123 1253 1255 0.4449 
r124 1250 1252 0.118075 
r125 1250 1251 1.5 
r126 1248 1252 0.0465329 
r127 1248 1249 0.0298947 
r128 1247 1269 0.0200104 
r129 1247 1249 1.61053 
r130 1244 1381 0.2 
r131 1242 1269 0.05953 
r132 1242 1244 0.327789 
r133 1238 1240 1 
r134 1237 1238 0.023619 
r135 1234 1237 1.77505 
r136 1234 1378 0.2 
r137 1231 1419 0.0327869 
r138 1411 1229 0.00295856 
r139 1229 1415 0.00296109 
r140 1227 1229 0.0266667 
r141 1227 1231 0.029698 
r142 1336 1226 0.130435 
r143 1226 1409 0.00296109 
r144 1406 1226 0.00296109 
r145 1224 1226 0.0266667 
r146 1224 1227 0.0245274 
r147 1400 1223 0.00295856 
r148 1223 1404 0.00296109 
r149 1221 1223 0.0266667 
r150 1221 1224 0.0245274 
r151 1220 1221 0.000441702 
r152 1327 1219 0.130435 
r153 1219 1398 0.00296109 
r154 1395 1219 0.00296109 
r155 1217 1219 0.0266667 
r156 1217 1220 0.0240857 
r157 1389 1216 0.00295856 
r158 1216 1393 0.00296109 
r159 1214 1216 0.0266667 
r160 1214 1217 0.0245274 
r161 1213 1262 0.02 
r162 1213 1214 0.0289964 
r163 1271 1212 0.00204937 
r164 1212 1231 0.00358558 
r165 1206 1208 0.4449 
r166 1202 1204 0.00199444 
r167 1201 1202 0.35605 
r168 1198 1201 0.00306111 
r169 1185 1251 0.36198 
r170 1185 1186 0.0763979 
r171 1291 1184 0.432326 
r172 1182 1184 0.6 
r173 1181 1291 0.433488 
r174 1179 1181 0.6 
r175 1167 1169 3 
r176 1166 1167 0.141429 
r177 1165 1166 0.0448535 
r178 1164 1186 0.0763979 
r179 1164 1165 2.6598 
r180 1162 1182 0.000514688 
r181 1162 1163 0.08 
r182 1161 1186 0.0144723 
r183 1161 1163 0.0700319 
r184 1316 1159 0.432326 
r185 1157 1159 0.6 
r186 1311 1156 0.432326 
r187 1154 1156 0.6 
r188 1154 1157 0.279231 
r189 1306 1153 0.432326 
r190 1151 1153 0.6 
r191 1151 1154 0.279231 
r192 1301 1150 0.432326 
r193 1148 1150 0.6 
r194 1148 1151 0.279231 
r195 1296 1147 0.432326 
r196 1145 1147 0.6 
r197 1145 1148 0.279231 
r198 1144 1182 0.0468981 
r199 1144 1145 0.208077 
r200 1140 1316 0.433488 
r201 1138 1140 0.6 
r202 1137 1311 0.433488 
r203 1135 1137 0.6 
r204 1135 1138 0.273962 
r205 1134 1306 0.433488 
r206 1132 1134 0.6 
r207 1132 1135 0.273962 
r208 1131 1301 0.433488 
r209 1129 1131 0.6 
r210 1129 1132 0.273962 
r211 1128 1296 0.433488 
r212 1126 1128 0.6 
r213 1126 1129 0.273962 
r214 1125 1179 0.0462255 
r215 1125 1126 0.204151 
r216 1122 1179 9.78426e-05 
r217 1115 1240 0.247429 
r218 1113 1347 0.230275 
r219 1111 1281 0.211193 
r220 1111 1112 0.0861375 
r221 1109 1110 0.089172 
r222 1108 1109 0.089172 
r223 1107 1108 0.089172 
r224 1106 1322 0.0616 
r225 1105 1107 0.089172 
r226 1105 1106 0.0204618 
r227 1104 1105 0.089172 
r228 1103 1104 0.089172 
r229 1102 1103 0.089172 
r230 1101 1102 0.089172 
r231 1099 1286 0.229041 
r232 1099 1100 0.0863581 
r233 1097 1281 0.210046 
r234 1097 1098 0.0863581 
r235 1113 1095 0.0861375 
r236 1095 1096 0.132033 
r237 1092 1367 0.02 
r238 1092 1360 0.30632 
r239 1090 1366 0.02 
r240 1090 1360 0.30632 
r241 1088 1365 0.02 
r242 1088 1360 0.30632 
r243 1086 1364 0.02 
r244 1086 1360 0.30632 
r245 1084 1359 0.02 
r246 1084 1360 0.30632 
r247 1082 1358 0.02 
r248 1082 1360 0.30632 
r249 1080 1357 0.02 
r250 1080 1360 0.30632 
r251 1078 1356 0.02 
r252 1078 1360 0.30632 
r253 1110 1076 0.35928 
r254 1109 1073 0.35928 
r255 1108 1070 0.35928 
r256 1107 1067 0.35928 
r257 1063 1104 0.0204618 
r258 1063 1064 0.35288 
r259 1060 1103 0.0204618 
r260 1060 1061 0.35288 
r261 1102 1058 0.35928 
r262 1101 1055 0.35928 
r263 1024 1281 0.128 
r264 1023 1096 0.0473573 
r265 1023 1281 0.126 
r266 993 1024 0.0473573 
r267 1100 993 0.132033 
r268 990 1368 0.02 
r269 989 1354 0.02 
r270 987 1281 0.126 
r271 986 1281 0.128 
r272 609 990 0.5605 
r273 599 609 0.0446983 
r274 599 600 1.21 
r275 597 600 0.0446983 
r276 597 989 0.5605 
r277 1255 530 0.2101 
r278 530 1202 0.357143 
r279 529 1383 0.00383957 
r280 1381 529 0.122834 
r281 1253 529 1 
r282 527 1195 0.0418839 
r283 1191 527 0.0414748 
r284 1220 527 0.00120077 
r285 523 1377 0.666667 
r286 1263 521 0.499703 
r287 521 523 2.0883 
r288 1208 519 0.1981 
r289 519 1201 0.357143 
r290 518 1377 0.0147487 
r291 1373 518 0.00589305 
r292 1206 518 1 
r293 1249 512 0.5 
r294 510 1240 0.023619 
r295 1237 510 1 
r296 508 1163 0.02 
r297 508 512 0.217905 
r298 506 1122 0.0884345 
r299 506 1115 0.0469908 
r300 1229 497 0.130435 
r301 1336 412 0.00313778 
r302 1409 412 0.0652174 
r303 497 402 0.0031351 
r304 1411 402 0.0652174 
r305 362 497 0.00314046 
r306 1415 362 0.0652174 
r307 351 1346 0.0119231 
r308 1419 351 0.0267308 
r309 351 1343 0.0652174 
r310 1223 334 0.130435 
r311 1327 249 0.00313778 
r312 1398 249 0.0652174 
r313 334 239 0.0031351 
r314 1400 239 0.0652174 
r315 199 334 0.00314046 
r316 1404 199 0.0652174 
r317 189 1336 0.00313778 
r318 1406 189 0.0652174 
r319 1216 171 0.130435 
r320 86 1284 0.0113242 
r321 1281 86 0.0131507 
r322 1371 86 0.0652174 
r323 171 76 0.0031351 
r324 1389 76 0.0652174 
r325 36 171 0.00314046 
r326 1393 36 0.0652174 
r327 26 1327 0.00313778 
r328 1395 26 0.0652174 
r329 14 1112 0.250407 
r330 14 987 0.0473573 
r331 8 1098 0.250407 
r332 8 986 0.0473573 
.ends

.subckt PM_PVDA%VSS 1041 1044 1047 1050 1053 1056 1059 1062 1080 1086 1090 1114
+ 1133 1146 1156 1167
c0 1167 0 41.2715f
c1 1154 0 5.85209f
c2 1146 0 1.24866f
c3 1135 0 11.6968f
c4 1133 0 0.145467f
c5 1131 0 1.66286f
c6 1110 0 0.326683f
c7 1104 0 15.4736f
c8 1101 0 0.343235f
c9 1095 0 14.4915f
c10 1086 0 87.2691f
c11 1072 0 7.06213f
c12 1062 0 2.03347f
c13 1059 0 1.82171f
c14 1056 0 1.86061f
c15 1053 0 1.85151f
c16 1050 0 1.81148f
c17 1047 0 1.81148f
c18 1044 0 1.81148f
c19 1041 0 2.02078f
c20 1038 0 1.85736f
c21 1036 0 1.85618f
c22 1034 0 1.85618f
c23 1032 0 1.85618f
c24 1030 0 1.88796f
c25 1028 0 1.8453f
c26 1026 0 1.8642f
c27 1024 0 1.86575f
c28 1023 0 1.80759f
c29 1020 0 8.02115f
c30 903 0 0.0538339f
c31 902 0 0.0695549f
c32 901 0 0.0538339f
c33 900 0 0.135309f
c34 872 0 5.43912f
c35 868 0 0.665399f
c36 866 0 0.969955f
c37 838 0 7.51643f
c38 832 0 5.10781f
c39 802 0 6.64248f
c40 799 0 0.102637f
c41 798 0 0.562762f
c42 797 0 0.119847f
c43 796 0 0.775538f
c44 795 0 6.27047f
c45 385 0 0.358902f
c46 383 0 0.396489f
c47 381 0 7.81649f
c48 380 0 0.279591f
c49 379 0 0.326884f
c50 378 0 0.26901f
c51 377 0 0.621693f
c52 370 0 0.595813f
c53 238 0 0.236614f
c54 237 0 4.81248f
c55 236 0 2.00902f
c56 213 0 1.83962f
c57 209 0 1.83862f
r58 1164 1165 0.0979462 
r59 1163 1164 0.0282353 
r60 1162 1163 0.228674 
r61 1161 1162 0.0412363 
r62 1156 1159 0.00303091 
r63 1153 1154 0.0551111 
r64 1152 1153 0.0497778 
r65 1151 1152 0.0497778 
r66 1150 1151 0.0497778 
r67 1148 1150 0.0131556 
r68 1148 1162 0.0413793 
r69 1146 1148 0.00266667 
r70 1145 1146 0.0339556 
r71 1144 1145 0.0497778 
r72 1143 1144 0.0497778 
r73 1142 1143 0.0497778 
r74 1140 1142 0.0551111 
r75 1138 1165 0.142857 
r76 1135 1138 0.113659 
r77 1131 1133 0.30408 
r78 1131 1163 0.0416667 
r79 1125 1128 3.64488 
r80 1122 1159 0.142857 
r81 1119 1122 0.109268 
r82 1114 1116 0.1891 
r83 1128 1110 2 
r84 1108 1110 2 
r85 1107 1108 1.4503 
r86 1104 1107 0.813861 
r87 1104 1164 0.3 
r88 1125 1101 2 
r89 1099 1101 2 
r90 1098 1099 1.37301 
r91 1095 1098 0.830622 
r92 1095 1161 0.3 
r93 1090 1092 0.1891 
r94 1084 1086 0.000506675 
r95 1083 1084 0.0834503 
r96 1080 1083 0.000704656 
r97 1072 1073 0.089172 
r98 1071 1072 0.089172 
r99 1070 1071 0.089172 
r100 1069 1131 0.0488 
r101 1068 1070 0.089172 
r102 1068 1069 0.0204618 
r103 1067 1068 0.089172 
r104 1066 1067 0.089172 
r105 1065 1066 0.089172 
r106 1064 1065 0.089172 
r107 1073 1062 0.35928 
r108 1072 1059 0.35928 
r109 1055 1071 0.0204618 
r110 1055 1056 0.35288 
r111 1052 1070 0.0204618 
r112 1052 1053 0.35288 
r113 1067 1050 0.35928 
r114 1066 1047 0.35928 
r115 1065 1044 0.35928 
r116 1064 1041 0.35928 
r117 1038 1153 0.02 
r118 1038 1146 0.30632 
r119 1036 1152 0.02 
r120 1036 1146 0.30632 
r121 1034 1151 0.02 
r122 1034 1146 0.30632 
r123 1032 1150 0.02 
r124 1032 1146 0.30632 
r125 1030 1145 0.02 
r126 1030 1146 0.30632 
r127 1028 1144 0.02 
r128 1028 1146 0.30632 
r129 1026 1143 0.02 
r130 1026 1146 0.30632 
r131 1024 1142 0.02 
r132 1024 1146 0.30632 
r133 1023 1140 0.02 
r134 1022 1138 0.349756 
r135 1021 1135 0.02 
r136 1020 1128 0.546341 
r137 1019 1125 0.522927 
r138 1018 1119 0.02 
r139 1017 1122 0.354146 
r140 1020 902 0.0420172 
r141 1019 900 0.0420172 
r142 871 899 0.347333 
r143 870 872 0.345333 
r144 869 903 0.0412274 
r145 868 871 0.0465329 
r146 868 869 0.578095 
r147 867 902 0.0420172 
r148 866 870 0.0467869 
r149 866 867 0.592195 
r150 837 903 0.00319614 
r151 837 865 0.349159 
r152 836 902 0.00265108 
r153 836 838 0.346916 
r154 833 901 0.0412274 
r155 832 903 0.0412274 
r156 801 901 0.00319614 
r157 801 829 0.346916 
r158 800 900 0.00265108 
r159 800 802 0.344673 
r160 798 901 0.0412274 
r161 798 799 0.578095 
r162 796 900 0.0420172 
r163 796 797 0.592195 
r164 795 799 0.0465329 
r165 794 797 0.0467869 
r166 794 795 3.32467 
r167 388 391 1.676 
r168 391 385 1.5 
r169 1107 385 1.5 
r170 388 383 1 
r171 1098 383 1 
r172 381 391 0.459111 
r173 1022 380 0.0420897 
r174 379 388 0.462222 
r175 1017 378 0.0420897 
r176 377 381 0.0474127 
r177 380 377 0.120863 
r178 802 373 0.161495 
r179 373 829 0.161495 
r180 838 373 0.159252 
r181 373 865 0.159252 
r182 872 373 0.106 
r183 373 899 0.106 
r184 832 373 4.34857 
r185 833 373 0.253333 
r186 1021 373 2.94 
r187 1018 373 2.904 
r188 370 379 0.0474127 
r189 378 370 0.120863 
r190 247 1023 0.5605 
r191 237 247 0.0446983 
r192 237 238 1.21 
r193 236 1154 0.02 
r194 235 238 0.0446983 
r195 235 236 0.5605 
r196 213 1114 0.0129 
r197 213 1084 0.131579 
r198 212 1167 0.00318245 
r199 1165 212 0.0129212 
r200 1116 212 0.428571 
r201 209 1090 0.0249 
r202 209 1083 0.131579 
r203 208 1161 0.101926 
r204 1159 208 0.00128415 
r205 1092 208 0.428571 
.ends

.subckt PM_PVDA%VDD 17 22 25 31 33 39
c0 39 0 2.88862f
c1 33 0 1.73879f
c2 31 0 100.159f
c3 22 0 50.0738f
r4 29 31 0.000500966 
r5 28 29 0.0824842 
r6 25 28 0.000722473 
r7 7 43 0.141 
r8 39 7 0.0621 
r9 7 29 0.0925926 
r10 6 22 0.00305282 
r11 43 6 0.6 
r12 3 37 0.105 
r13 33 3 0.0611 
r14 3 28 0.0925926 
r15 2 6 0.466441 
r16 17 2 0.00408743 
r17 37 2 0.6 
.ends

