* File: apvdi.dist.sp.pex
* Created: Sun Jul  4 12:06:27 2010
* Program "Calibre xRC"
* Version "v2008.4_19.14"
* Nominal Temperature: 27C
* Circuit Temperature: 27C
* 
.subckt PM_APVDI%U33_U18_r1 78 83 168 173 258 263 282 332 337 342 347 352 358
+ 485
c0 498 0 0.788867f
c1 494 0 0.788833f
c2 490 0 0.788833f
c3 485 0 0.323364f
c4 480 0 0.788833f
c5 476 0 0.788867f
c6 459 0 0.532898f
c7 455 0 0.426778f
c8 447 0 0.105423f
c9 445 0 1.48106f
c10 443 0 0.265614f
c11 442 0 0.230663f
c12 440 0 0.889173f
c13 438 0 0.349134f
c14 436 0 2.94717f
c15 434 0 11.2576f
c16 416 0 11.2656f
c17 413 0 0.532898f
c18 412 0 0.250539f
c19 411 0 1.59778f
c20 407 0 0.0569909f
c21 406 0 0.250539f
c22 405 0 1.59787f
c23 401 0 0.532942f
c24 400 0 0.250539f
c25 399 0 1.59801f
c26 395 0 0.0569463f
c27 394 0 0.250539f
c28 393 0 1.59792f
c29 388 0 0.250539f
c30 387 0 1.60594f
c31 383 0 0.0569463f
c32 382 0 1.81772f
c33 381 0 0.0569463f
c34 379 0 0.0569463f
c35 377 0 0.0569463f
c36 375 0 0.0569463f
c37 373 0 0.219131f
c38 371 0 5.21968f
c39 370 0 0.0484104f
c40 364 0 0.0846802f
c41 363 0 0.561365f
c42 362 0 0.0854138f
c43 361 0 0.561365f
c44 360 0 0.0854138f
c45 359 0 0.50358f
c46 358 0 2.39089f
c47 352 0 2.34595f
c48 347 0 2.34595f
c49 342 0 2.34595f
c50 337 0 2.34595f
c51 332 0 2.38983f
c52 282 0 2.60606f
c53 263 0 2.34595f
c54 262 0 0.0854138f
c55 258 0 2.34595f
c56 257 0 0.0854138f
c57 173 0 2.34595f
c58 172 0 0.0854138f
c59 168 0 2.34595f
c60 167 0 0.0854138f
c61 83 0 2.34595f
c62 82 0 0.0854138f
c63 78 0 2.34595f
c64 77 0 0.0854138f
r65 485 512 3 
r66 482 514 1.5 
r67 480 508 0.216256 
r68 478 480 3 
r69 474 476 3 
r70 469 498 3 
r71 466 494 3 
r72 461 490 3 
r73 459 461 0.0563855 
r74 445 512 0.396129 
r75 443 445 1.5 
r76 442 443 0.0644344 
r77 514 440 0.276615 
r78 438 440 1.5 
r79 437 447 0.00441709 
r80 437 438 0.0552672 
r81 436 442 0.0447032 
r82 435 447 0.0395092 
r83 435 436 1.07023 
r84 434 447 0.0395092 
r85 433 434 3.97862 
r86 431 508 3 
r87 476 429 0.216256 
r88 427 429 3 
r89 427 431 0.661404 
r90 498 426 0.216256 
r91 424 426 3 
r92 424 427 0.662456 
r93 494 423 0.216256 
r94 421 423 3 
r95 421 424 0.663509 
r96 490 419 0.216256 
r97 417 419 3 
r98 417 421 0.662456 
r99 416 433 0.0447338 
r100 416 431 0.475789 
r101 413 478 0.0563855 
r102 412 478 0.0361446 
r103 412 413 0.0192771 
r104 413 411 0.0207229 
r105 407 474 0.00192771 
r106 406 474 0.0346988 
r107 406 407 0.0192771 
r108 407 405 0.0207229 
r109 401 469 0.0578313 
r110 400 469 0.0346988 
r111 400 401 0.0192771 
r112 401 399 0.0207229 
r113 395 466 0.000481928 
r114 394 466 0.0361446 
r115 394 395 0.0192771 
r116 395 393 0.0207229 
r117 388 461 0.0361446 
r118 388 459 0.0192771 
r119 459 387 0.0207229 
r120 413 383 0.0207229 
r121 382 455 0.078656 
r122 382 383 0.709268 
r123 407 381 0.0207229 
r124 411 381 0.709268 
r125 401 379 0.0207229 
r126 405 379 0.709268 
r127 395 377 0.0207229 
r128 399 377 0.709268 
r129 459 375 0.0207229 
r130 393 375 0.709268 
r131 373 384 0.078656 
r132 387 373 0.709268 
r133 371 482 0.115702 
r134 370 482 0.564848 
r135 364 455 2.58824 
r136 363 407 5.05882 
r137 362 407 5.05882 
r138 361 395 5.05882 
r139 360 395 5.05882 
r140 359 384 2.58824 
r141 354 364 5.28991 
r142 354 358 367.92 
r143 349 363 5.28991 
r144 349 352 367.92 
r145 344 362 5.28991 
r146 344 347 367.92 
r147 339 361 5.28991 
r148 339 342 367.92 
r149 334 360 5.28991 
r150 334 337 367.92 
r151 329 359 5.28991 
r152 329 332 367.92 
r153 371 287 0.0954001 
r154 287 282 1.9113 
r155 281 370 0.0954001 
r156 281 282 1.9113 
r157 268 413 5.05882 
r158 267 413 5.05882 
r159 262 268 5.28991 
r160 262 263 367.92 
r161 257 267 5.28991 
r162 257 258 367.92 
r163 178 401 5.05882 
r164 177 401 5.05882 
r165 172 178 5.28991 
r166 172 173 367.92 
r167 167 177 5.28991 
r168 167 168 367.92 
r169 88 459 5.05882 
r170 87 459 5.05882 
r171 82 88 5.28991 
r172 82 83 367.92 
r173 77 87 5.28991 
r174 77 78 367.92 
.ends

.subckt PM_APVDI%AVDD 25 51 87 113 149 175 226 905 928 930 936 940 943 971 981
+ 991 999 1004 1008 1012 1016 1020 1024 1028 1039 1055
c0 1057 0 7.52938f
c1 1053 0 159.215f
c2 1035 0 13.5145f
c3 1028 0 7.95704f
c4 1024 0 12.9298f
c5 1020 0 12.9298f
c6 1016 0 12.9396f
c7 1012 0 12.9336f
c8 1008 0 12.9414f
c9 1004 0 8.07167f
c10 999 0 9.10601e-19
c11 987 0 13.0286f
c12 981 0 2.33709f
c13 976 0 117.51f
c14 975 0 7.61034f
c15 966 0 1.63259f
c16 961 0 2.00208f
c17 949 0 15.3363f
c18 943 0 1.6904f
c19 936 0 38.0771f
c20 926 0 0.925788f
c21 923 0 14.4288f
c22 922 0 14.0873f
c23 921 0 26.0362f
c24 920 0 64.322f
c25 919 0 14.0343f
c26 916 0 14.0341f
c27 913 0 14.0339f
c28 910 0 14.0341f
c29 886 0 127.377f
c30 884 0 14.0778f
c31 880 0 0.314101f
c32 875 0 8.06291f
c33 874 0 0.0919229f
c34 764 0 6.83749f
c35 745 0 0.115491f
c36 744 0 2.08859f
c37 713 0 5.95361f
c38 226 0 2.83801f
c39 206 0 10.9913f
c40 200 0 4.49913f
c41 197 0 3.28395f
c42 195 0 1.98531f
c43 175 0 3.81782f
c44 158 0 6.92253f
c45 149 0 3.81763f
c46 132 0 6.92253f
c47 113 0 3.81782f
c48 96 0 6.92253f
c49 87 0 3.81782f
c50 70 0 6.92253f
c51 51 0 3.81763f
c52 34 0 6.92253f
c53 25 0 3.81782f
c54 8 0 6.92253f
r55 1054 1055 0.000593149 
r56 1053 1054 0.0669731 
r57 1050 1051 0.000709429 
r58 1049 1050 0.0034762 
r59 1043 1044 0.163352 
r60 1001 1004 0.0369231 
r61 1001 1050 0.113208 
r62 997 999 0.002 
r63 997 1049 0.12 
r64 987 989 0.016 
r65 977 1044 0.0190476 
r66 976 987 0.0264274 
r67 976 977 0.0933438 
r68 975 1049 0.00276677 
r69 974 976 0.144167 
r70 974 975 0.0288462 
r71 970 971 0.00423182 
r72 964 966 1.5 
r73 961 964 1.47596 
r74 961 1043 0.4 
r75 954 1053 0.00162999 
r76 949 1057 0.000660677 
r77 949 954 0.0360262 
r78 934 936 0.00069414 
r79 933 934 0.0822923 
r80 930 933 0.000721185 
r81 1035 926 0.228046 
r82 924 926 0.375 
r83 923 1044 0.0783242 
r84 923 924 0.0804472 
r85 921 989 0.0635591 
r86 921 922 0.319822 
r87 920 1055 0.125408 
r88 920 922 0.345778 
r89 921 919 0.319822 
r90 920 919 0.345778 
r91 921 916 0.319822 
r92 920 916 0.345778 
r93 921 913 0.319822 
r94 920 913 0.345778 
r95 921 910 0.319822 
r96 920 910 0.345778 
r97 904 905 0.00470727 
r98 903 1028 0.0369231 
r99 901 903 0.113208 
r100 901 904 0.0115435 
r101 900 1024 0.0256489 
r102 898 900 0.113208 
r103 898 901 0.0171733 
r104 897 1020 0.0256489 
r105 895 897 0.113208 
r106 895 898 0.0171733 
r107 894 1016 0.0256489 
r108 892 894 0.113208 
r109 892 895 0.0171733 
r110 891 1012 0.0256489 
r111 889 891 0.113208 
r112 889 892 0.0171733 
r113 888 1008 0.0256489 
r114 886 888 0.113208 
r115 886 889 0.0171733 
r116 1051 886 0.0164636 
r117 921 884 0.319822 
r118 920 884 0.345778 
r119 991 880 0.0134831 
r120 878 880 3 
r121 876 966 0.578349 
r122 875 999 2.191 
r123 874 997 2.179 
r124 999 791 0.159252 
r125 764 999 0.159252 
r126 763 791 0.19514 
r127 875 762 0.045921 
r128 762 764 0.19514 
r129 745 999 2.11181 
r130 744 763 0.0456322 
r131 744 999 2.10217 
r132 999 740 0.159252 
r133 713 999 0.159252 
r134 712 745 0.0456322 
r135 712 740 0.19514 
r136 711 874 0.045921 
r137 711 713 0.19514 
r138 1035 226 3.42631 
r139 207 985 0.141 
r140 981 207 0.2255 
r141 207 934 0.0925926 
r142 206 928 0.00339448 
r143 924 206 0.0488889 
r144 985 206 0.6 
r145 203 947 0.105 
r146 943 203 0.2245 
r147 203 933 0.0925926 
r148 202 1043 0.0692168 
r149 1039 202 0.00408015 
r150 947 202 0.6 
r151 200 940 0.00189237 
r152 970 200 0.0694444 
r153 197 970 0.000804258 
r154 197 904 0.12 
r155 195 878 0.256089 
r156 195 876 0.0482212 
r157 1057 194 0.0513311 
r158 191 194 0.0022831 
r159 954 191 0.0666361 
r160 191 1054 0.00547945 
r161 175 162 0.00249413 
r162 919 162 0.0425532 
r163 158 175 0.00249413 
r164 919 158 0.0425532 
r165 149 136 0.00249413 
r166 922 136 0.0425532 
r167 132 149 0.00249413 
r168 922 132 0.0425532 
r169 113 100 0.00249413 
r170 913 100 0.0425532 
r171 96 113 0.00249413 
r172 913 96 0.0425532 
r173 87 74 0.00249413 
r174 916 74 0.0425532 
r175 70 87 0.00249413 
r176 916 70 0.0425532 
r177 51 38 0.00249413 
r178 884 38 0.0425532 
r179 34 51 0.00249413 
r180 884 34 0.0425532 
r181 25 12 0.00249413 
r182 910 12 0.0425532 
r183 8 25 0.00249413 
r184 910 8 0.0425532 
.ends

.subckt PM_APVDI%noxref_3 8 15
c0 14 0 0.710367f
c1 13 0 0.330289f
c2 8 0 0.295845f
r3 14 16 0.02 
r4 13 15 0.0300645 
r5 13 14 0.232258 
r6 16 8 0.0278652 
.ends

.subckt PM_APVDI%U34_U31_r2 401 403 405 407 409 411 413 415 417 419 421 424 453
c0 514 0 0.466811f
c1 513 0 0.466811f
c2 512 0 0.466811f
c3 511 0 0.466811f
c4 510 0 0.466811f
c5 509 0 0.476223f
c6 508 0 0.467679f
c7 507 0 0.466811f
c8 506 0 0.466811f
c9 505 0 0.466811f
c10 502 0 7.42068f
c11 498 0 0.474182f
c12 497 0 0.474182f
c13 496 0 0.474182f
c14 495 0 0.474182f
c15 494 0 0.474182f
c16 493 0 0.483542f
c17 492 0 0.47505f
c18 491 0 0.474182f
c19 490 0 0.475176f
c20 489 0 0.497739f
c21 486 0 8.03154f
c22 484 0 12.8286f
c23 473 0 0.272964f
c24 472 0 0.10896f
c25 469 0 1.05883f
c26 459 0 1.4097f
c27 456 0 2.17244f
c28 453 0 0.253518f
c29 400 0 3.43489f
c30 388 0 0.0845564f
c31 300 0 0.466811f
c32 297 0 0.462119f
c33 267 0 3.25207f
c34 265 0 0.0786776f
c35 234 0 3.25207f
c36 232 0 0.0786776f
c37 215 0 3.25207f
c38 213 0 0.0786776f
c39 182 0 3.25207f
c40 180 0 0.0786776f
c41 163 0 3.22621f
c42 161 0 0.0794279f
c43 130 0 3.23658f
c44 128 0 0.0786776f
c45 111 0 3.25289f
c46 109 0 0.0786776f
c47 78 0 3.25207f
c48 76 0 0.0786776f
c49 59 0 3.25207f
c50 57 0 0.0786776f
c51 26 0 3.25167f
c52 24 0 0.0831308f
c53 7 0 3.4531f
c54 5 0 0.107238f
r55 513 514 0.277073 
r56 512 513 0.43122 
r57 511 512 0.277073 
r58 510 511 0.43122 
r59 509 510 0.277073 
r60 508 509 0.43122 
r61 507 508 0.277073 
r62 506 507 0.43122 
r63 505 506 0.277073 
r64 504 505 0.216098 
r65 502 504 0.215122 
r66 497 498 0.277073 
r67 496 497 0.43122 
r68 495 496 0.277073 
r69 494 495 0.43122 
r70 493 494 0.277073 
r71 492 493 0.43122 
r72 491 492 0.277073 
r73 490 491 0.43122 
r74 489 490 0.277073 
r75 488 489 0.219024 
r76 486 488 0.212195 
r77 473 484 3 
r78 472 473 0.0564384 
r79 469 504 1.5 
r80 467 472 0.0448459 
r81 467 469 0.7 
r82 464 488 1.5 
r83 461 484 5.15576 
r84 459 461 6 
r85 459 464 0.741212 
r86 456 500 3 
r87 451 453 3 
r88 451 456 0.472296 
r89 400 424 487.92 
r90 388 424 487.92 
r91 514 300 0.43122 
r92 297 500 0.0478049 
r93 498 297 0.43122 
r94 287 300 4.14706 
r95 400 287 5.28991 
r96 285 297 4.16471 
r97 388 285 5.28991 
r98 268 514 4.14706 
r99 267 421 487.92 
r100 267 268 5.28991 
r101 266 498 4.16471 
r102 265 421 487.92 
r103 265 266 5.28991 
r104 235 513 4.14706 
r105 234 419 487.92 
r106 234 235 5.28991 
r107 233 497 4.16471 
r108 232 419 487.92 
r109 232 233 5.28991 
r110 216 512 4.14706 
r111 215 417 487.92 
r112 215 216 5.28991 
r113 214 496 4.16471 
r114 213 417 487.92 
r115 213 214 5.28991 
r116 183 511 4.14706 
r117 182 415 487.92 
r118 182 183 5.28991 
r119 181 495 4.16471 
r120 180 415 487.92 
r121 180 181 5.28991 
r122 164 510 4.14706 
r123 163 413 487.92 
r124 163 164 5.28991 
r125 162 494 4.16471 
r126 161 413 487.92 
r127 161 162 5.28991 
r128 131 509 4.14706 
r129 130 411 487.92 
r130 130 131 5.28991 
r131 129 493 4.16471 
r132 128 411 487.92 
r133 128 129 5.28991 
r134 112 508 4.14706 
r135 111 409 487.92 
r136 111 112 5.28991 
r137 110 492 4.16471 
r138 109 409 487.92 
r139 109 110 5.28991 
r140 79 507 4.14706 
r141 78 407 487.92 
r142 78 79 5.28991 
r143 77 491 4.16471 
r144 76 407 487.92 
r145 76 77 5.28991 
r146 60 506 4.14706 
r147 59 405 487.92 
r148 59 60 5.28991 
r149 58 490 4.16471 
r150 57 405 487.92 
r151 57 58 5.28991 
r152 27 505 4.14706 
r153 26 403 487.92 
r154 26 27 5.28991 
r155 25 489 4.16471 
r156 24 403 487.92 
r157 24 25 5.28991 
r158 8 502 4.14706 
r159 7 401 487.92 
r160 7 8 5.28991 
r161 6 486 4.16471 
r162 5 401 487.92 
r163 5 6 5.28991 
.ends

.subckt PM_APVDI%noxref_5 8 15
c0 14 0 0.639789f
c1 13 0 0.311803f
c2 8 0 0.274668f
r3 14 16 0.02 
r4 13 15 0.0300645 
r5 13 14 0.232258 
r6 16 8 0.0278652 
.ends

.subckt PM_APVDI%AVSS 983 1035 1044 1050 1054 1082 1096 1101 1106 1112 1117
+ 1122 1127 1132 1137 1144 1149 1154 1159 1164 1169 1209 1239
c0 1239 0 6.78121f
c1 1237 0 17.1686f
c2 1209 0 1.25187f
c3 1206 0 1.86698f
c4 1201 0 1.86766f
c5 1196 0 1.842f
c6 1190 0 1.87948f
c7 1185 0 1.85611f
c8 1180 0 1.85611f
c9 1175 0 1.85611f
c10 1170 0 1.85826f
c11 1169 0 0.145467f
c12 1166 0 1.86383f
c13 1164 0 0.145467f
c14 1161 0 1.84871f
c15 1159 0 0.145467f
c16 1156 0 1.84871f
c17 1154 0 0.145467f
c18 1151 0 1.84871f
c19 1149 0 0.145467f
c20 1146 0 1.83791f
c21 1144 0 0.143573f
c22 1141 0 1.88027f
c23 1138 0 12.0572f
c24 1137 0 1.14968f
c25 1133 0 12.0572f
c26 1132 0 1.1486f
c27 1128 0 12.0607f
c28 1127 0 1.1486f
c29 1123 0 12.0895f
c30 1122 0 1.16194f
c31 1117 0 1.14829f
c32 1113 0 12.1461f
c33 1112 0 1.16486f
c34 1106 0 0.143573f
c35 1103 0 1.87422f
c36 1101 0 0.145467f
c37 1098 0 1.8564f
c38 1096 0 0.145458f
c39 1093 0 1.8699f
c40 1088 0 0.565287f
c41 1080 0 0.672491f
c42 1078 0 7.14098f
c43 1076 0 8.82223f
c44 1072 0 4.92347f
c45 1065 0 14.2141f
c46 1059 0 13.5449f
c47 1052 0 0.827673f
c48 1050 0 43.5696f
c49 1041 0 12.0514f
c50 1039 0 0.237944f
c51 1037 0 0.384163f
c52 1035 0 0.217766f
c53 1032 0 0.73354f
c54 1019 0 9.34537f
c55 1015 0 2.78173f
c56 1013 0 0.32054f
c57 1012 0 0.959668f
c58 994 0 10.0643f
c59 980 0 9.69251f
c60 968 0 8.18714f
c61 852 0 0.108058f
c62 851 0 0.0834743f
c63 850 0 0.142394f
c64 849 0 0.109999f
c65 821 0 4.7415f
c66 817 0 1.01957f
c67 815 0 0.824573f
c68 787 0 6.02058f
c69 783 0 7.14777f
c70 752 0 6.6699f
c71 749 0 0.122725f
c72 748 0 0.708936f
c73 747 0 0.110858f
c74 746 0 0.823494f
c75 745 0 6.16483f
c76 232 0 3.8235f
c77 229 0 10.3518f
c78 200 0 1.98175f
c79 190 0 1.86424f
c80 106 0 0.295655f
c81 105 0 5.3642f
c82 29 0 7.61451f
r83 1236 1237 0.0641172 
r84 1237 1233 0.0215291 
r85 1232 1233 0.0685015 
r86 1231 1232 0.0685015 
r87 1230 1231 0.0161468 
r88 1229 1230 0.0523547 
r89 1223 1224 0.0685015 
r90 1222 1223 0.0685015 
r91 1221 1222 0.0685015 
r92 1220 1221 0.0685015 
r93 1219 1220 0.0685015 
r94 1218 1219 0.0415902 
r95 1217 1218 0.0269113 
r96 1216 1217 0.0685015 
r97 1215 1216 0.0685015 
r98 1206 1209 0.19288 
r99 1206 1233 1.5 
r100 1201 1209 0.19288 
r101 1201 1232 1.5 
r102 1196 1209 0.19288 
r103 1196 1231 1.5 
r104 1190 1229 1.5 
r105 1190 1209 0.19288 
r106 1187 1229 0.0685015 
r107 1185 1187 1.5 
r108 1185 1209 0.19288 
r109 1182 1187 0.0685015 
r110 1180 1182 1.5 
r111 1180 1209 0.19288 
r112 1177 1182 0.0685015 
r113 1175 1177 1.5 
r114 1175 1209 0.19288 
r115 1172 1177 0.0685015 
r116 1224 1172 0.204037 
r117 1170 1172 1.5 
r118 1170 1209 0.19288 
r119 1166 1169 0.13512 
r120 1166 1224 1.5 
r121 1161 1164 0.13512 
r122 1161 1223 1.5 
r123 1156 1159 0.13512 
r124 1156 1222 1.5 
r125 1151 1154 0.13512 
r126 1151 1221 1.5 
r127 1146 1149 0.13512 
r128 1146 1220 1.5 
r129 1141 1144 0.13512 
r130 1141 1219 1.5 
r131 1137 1138 0.432326 
r132 1132 1133 0.432326 
r133 1127 1128 0.432326 
r134 1122 1123 0.432326 
r135 1112 1113 0.432326 
r136 1103 1106 0.13512 
r137 1103 1217 1.5 
r138 1098 1101 0.13512 
r139 1098 1216 1.5 
r140 1093 1096 0.13512 
r141 1093 1215 1.5 
r142 1080 1082 0.0755 
r143 1076 1078 1.5 
r144 1075 1088 0.0200172 
r145 1075 1076 3.22519 
r146 1072 1236 0.6 
r147 1070 1088 0.121202 
r148 1070 1072 0.869123 
r149 1065 1068 2.00436 
r150 1065 1230 0.75 
r151 1059 1062 1.95254 
r152 1059 1218 0.75 
r153 1052 1054 0.132 
r154 1048 1050 0.00164455 
r155 1047 1048 0.195027 
r156 1044 1047 0.0016476 
r157 1043 1078 3.06456 
r158 1117 1041 0.432326 
r159 1039 1041 0.6 
r160 1039 1042 0.0206573 
r161 1033 1035 3 
r162 1032 1043 0.0447227 
r163 1032 1033 0.1225 
r164 1028 1138 0.6 
r165 1025 1133 0.6 
r166 1025 1028 0.279231 
r167 1022 1128 0.6 
r168 1022 1025 0.279231 
r169 1019 1123 0.6 
r170 1019 1022 0.279231 
r171 1042 1019 0.258077 
r172 1015 1113 0.6 
r173 1014 1039 0.0193427 
r174 1014 1015 0.253333 
r175 1013 1015 0.122254 
r176 1013 1012 0.04 
r177 1108 1011 2.80195 
r178 1008 1137 0.433488 
r179 1006 1008 0.6 
r180 1005 1132 0.433488 
r181 1003 1005 0.6 
r182 1003 1006 0.273962 
r183 1002 1127 0.433488 
r184 1000 1002 0.6 
r185 1000 1003 0.273962 
r186 999 1122 0.433488 
r187 997 999 0.6 
r188 997 1000 0.273962 
r189 996 1117 0.433488 
r190 994 996 0.6 
r191 994 997 0.273962 
r192 1037 994 0.054717 
r193 992 1112 0.433488 
r194 990 992 0.6 
r195 989 1108 0.842927 
r196 985 1037 0.0407455 
r197 985 990 0.160345 
r198 980 1011 0.546341 
r199 979 1209 0.30632 
r200 978 1209 0.30632 
r201 977 1209 0.30632 
r202 976 1209 0.30632 
r203 975 1209 0.30632 
r204 974 1209 0.30632 
r205 973 1209 0.30632 
r206 972 1209 0.30632 
r207 969 1169 0.35928 
r208 968 969 0.089172 
r209 968 1164 0.35928 
r210 965 1149 0.35288 
r211 964 1144 0.35288 
r212 963 1106 0.35288 
r213 962 1101 0.35928 
r214 961 989 0.522927 
r215 960 962 0.089172 
r216 960 1096 0.35928 
r217 980 851 0.0420172 
r218 961 849 0.0517786 
r219 1108 848 0.149647 
r220 821 1108 0.149647 
r221 820 848 0.490353 
r222 819 821 0.487529 
r223 818 852 0.0412274 
r224 817 820 0.0447003 
r225 817 818 0.611429 
r226 816 851 0.0420172 
r227 815 819 0.0447171 
r228 815 816 0.626341 
r229 1108 814 0.159252 
r230 787 1108 0.159252 
r231 786 852 0.00319614 
r232 786 814 0.349159 
r233 785 851 0.00265108 
r234 785 787 0.346916 
r235 784 850 0.0508751 
r236 783 852 0.0412274 
r237 783 784 4.6019 
r238 1108 779 0.122553 
r239 752 1108 0.122553 
r240 751 850 0.00286573 
r241 751 779 0.263262 
r242 750 849 0.00337442 
r243 750 752 0.26156 
r244 748 850 0.0508751 
r245 748 749 0.579048 
r246 746 849 0.0517786 
r247 746 747 0.593171 
r248 745 749 0.0447003 
r249 744 747 0.0447171 
r250 744 745 4.69365 
r251 234 1012 0.106276 
r252 234 1011 2 
r253 1068 234 2 
r254 232 989 2 
r255 232 990 0.246207 
r256 1062 232 2 
r257 228 229 0.0551111 
r258 979 228 0.02 
r259 227 228 0.0497778 
r260 978 227 0.02 
r261 226 227 0.0497778 
r262 977 226 0.02 
r263 225 226 0.0497778 
r264 1209 225 0.0339556 
r265 976 225 0.02 
r266 223 1209 0.0158222 
r267 975 223 0.02 
r268 222 223 0.0497778 
r269 974 222 0.02 
r270 221 222 0.0497778 
r271 973 221 0.02 
r272 220 221 0.0497778 
r273 972 220 0.02 
r274 218 220 0.0551111 
r275 215 1159 0.35928 
r276 215 968 0.089172 
r277 214 1154 0.35928 
r278 214 215 0.089172 
r279 213 214 0.089172 
r280 965 213 0.0204618 
r281 212 213 0.089172 
r282 964 212 0.0204618 
r283 211 212 0.089172 
r284 962 211 0.089172 
r285 963 211 0.0204618 
r286 970 200 0.5605 
r287 200 218 0.02 
r288 190 229 0.02 
r289 115 190 0.5605 
r290 970 106 0.0446983 
r291 105 115 0.0446983 
r292 105 106 1.21 
r293 1082 37 0.0765 
r294 37 1048 0.357143 
r295 36 1239 0.00437886 
r296 1236 36 0.0278365 
r297 1080 36 0.857143 
r298 1054 33 0.008 
r299 33 1047 0.357143 
r300 1052 32 0.857143 
r301 30 1215 0.00868502 
r302 30 32 0.0340229 
r303 29 983 0.0173663 
r304 29 32 0.0166651 
.ends

.subckt PM_APVDI%AVSSO 171 334 497 821 827 830 836 839 853 857 887 906 908 914
+ 923 934 974 982
c0 982 0 47.7593f
c1 971 0 5.06881f
c2 969 0 7.18063f
c3 963 0 7.18063f
c4 958 0 7.18063f
c5 952 0 7.18063f
c6 947 0 7.18063f
c7 938 0 3.80313f
c8 929 0 8.97508f
c9 906 0 8.25608e-19
c10 904 0 8.94901f
c11 901 0 3.79003f
c12 893 0 4.506f
c13 891 0 0.428093f
c14 886 0 73.3653f
c15 864 0 6.38514f
c16 853 0 0.677082f
c17 852 0 0.381983f
c18 851 0 0.157503f
c19 847 0 0.348791f
c20 845 0 0.388852f
c21 839 0 0.458731f
c22 838 0 0.357841f
c23 836 0 29.1665f
c24 827 0 9.54629f
c25 819 0 0.685014f
c26 815 0 0.860923f
c27 805 0 0.7156f
c28 804 0 3.18639f
c29 802 0 0.39369f
c30 801 0 0.71709f
c31 800 0 3.18325f
c32 799 0 0.396703f
c33 738 0 9.80759f
c34 735 0 7.03182f
c35 734 0 0.610854f
c36 729 0 0.146306f
c37 728 0 0.452025f
c38 553 0 7.04058f
c39 552 0 0.29225f
c40 551 0 9.71268f
c41 540 0 5.91459f
c42 537 0 0.378713f
c43 523 0 0.380833f
c44 412 0 13.737f
c45 362 0 13.737f
c46 249 0 13.737f
c47 199 0 13.737f
c48 36 0 13.737f
c49 14 0 0.353118f
c50 13 0 0.146306f
c51 6 0 0.359986f
r52 977 978 0.0013369 
r53 974 977 0.0209626 
r54 941 942 0.01872 
r55 938 980 0.136364 
r56 973 933 0.0652174 
r57 933 934 0.0126606 
r58 929 971 0.0638298 
r59 906 933 0.013211 
r60 929 906 0.00954128 
r61 904 906 0.00821918 
r62 904 941 0.0638298 
r63 901 977 0.136364 
r64 889 891 0.0517047 
r65 886 887 0.00134543 
r66 885 886 0.00178524 
r67 884 885 0.00398428 
r68 883 973 0.0126531 
r69 971 883 0.0126531 
r70 881 883 0.0425532 
r71 881 884 0.00404339 
r72 965 880 0.00295856 
r73 880 969 0.00296109 
r74 878 880 0.0255319 
r75 878 881 0.0210209 
r76 923 877 0.130435 
r77 877 963 0.00296109 
r78 960 877 0.00296109 
r79 875 877 0.0255319 
r80 875 878 0.0223214 
r81 954 874 0.00295856 
r82 874 958 0.00296109 
r83 872 874 0.0255319 
r84 872 875 0.0223214 
r85 914 870 0.130435 
r86 870 952 0.00296109 
r87 949 870 0.00296109 
r88 868 870 0.0255319 
r89 943 867 0.00295856 
r90 867 947 0.00296109 
r91 865 867 0.0255319 
r92 865 868 0.0223214 
r93 864 941 0.00112 
r94 862 864 0.0437956 
r95 862 865 0.0195549 
r96 861 862 0.00203352 
r97 860 861 0.00561582 
r98 859 860 0.00159607 
r99 857 859 0.00342861 
r100 852 853 0.084 
r101 851 891 0.02 
r102 850 885 0.0200396 
r103 850 851 0.0647059 
r104 849 980 0.00951872 
r105 978 849 0.647219 
r106 847 849 1 
r107 846 852 0.08594 
r108 846 847 0.00957168 
r109 845 893 0.072015 
r110 845 847 0.0339257 
r111 843 889 0.02 
r112 843 893 1.59107 
r113 838 839 0.094 
r114 834 836 0.00282778 
r115 833 834 0.355222 
r116 830 833 0.00305556 
r117 886 826 0.0378788 
r118 826 827 0.000729721 
r119 825 826 0.0415518 
r120 819 973 0.277959 
r121 815 942 0.20928 
r122 807 934 0.230275 
r123 805 929 0.201651 
r124 803 908 0.229041 
r125 803 804 0.0863581 
r126 801 904 0.201826 
r127 801 802 0.0863581 
r128 807 800 0.0861375 
r129 805 799 0.0861375 
r130 738 906 0.126 
r131 735 906 0.126 
r132 734 938 0.125627 
r133 733 938 0.329541 
r134 732 906 0.128 
r135 731 906 0.128 
r136 729 731 0.0473573 
r137 729 802 0.250407 
r138 728 901 0.126361 
r139 727 901 0.328807 
r140 734 560 0.0923344 
r141 728 559 0.0923344 
r142 554 559 0.0221996 
r143 554 555 1.28311 
r144 553 560 0.0221996 
r145 553 555 1.31511 
r146 727 552 0.0705934 
r147 551 733 0.0705934 
r148 551 552 5.846 
r149 537 978 0.5 
r150 537 540 0.0403123 
r151 536 825 0.0392177 
r152 821 536 0.00185957 
r153 859 536 0.0378788 
r154 853 533 0.396 
r155 533 834 0.357143 
r156 532 982 0.00544385 
r157 980 532 0.0106952 
r158 847 532 1 
r159 529 872 0.00113499 
r160 868 529 0.0211864 
r161 529 825 0.00151515 
r162 527 860 0.0200396 
r163 527 540 1.32248 
r164 839 525 0.357 
r165 525 833 0.357143 
r166 523 838 0.0863787 
r167 522 537 0.0189474 
r168 522 523 0.0471579 
r169 819 517 0.0144898 
r170 884 517 1.5 
r171 815 515 0.02928 
r172 861 515 1 
r173 880 497 0.130435 
r174 923 412 0.00313778 
r175 963 412 0.0652174 
r176 497 402 0.0031351 
r177 965 402 0.0652174 
r178 362 497 0.00314046 
r179 969 362 0.0652174 
r180 874 334 0.130435 
r181 914 249 0.00313778 
r182 952 249 0.0652174 
r183 334 239 0.0031351 
r184 954 239 0.0652174 
r185 199 334 0.00314046 
r186 958 199 0.0652174 
r187 189 923 0.00313778 
r188 960 189 0.0652174 
r189 867 171 0.130435 
r190 86 908 0.0126027 
r191 906 86 0.0131507 
r192 942 86 0.0652174 
r193 171 76 0.0031351 
r194 943 76 0.0652174 
r195 36 171 0.00314046 
r196 947 36 0.0652174 
r197 26 914 0.00313778 
r198 949 26 0.0652174 
r199 14 800 0.132033 
r200 738 14 0.0473573 
r201 13 799 0.250407 
r202 13 735 0.0473573 
r203 6 804 0.132033 
r204 732 6 0.0473573 
.ends

.subckt PM_APVDI%AVDDO 1017 1023 1032 1037 1040 1046 1049 1056 1060 1069 1075
+ 1080 1088 1091
c0 1096 0 0.824672f
c1 1085 0 20.9797f
c2 1084 0 2.18308f
c3 1075 0 71.5184f
c4 1072 0 4.23383f
c5 1069 0 47.7559f
c6 1056 0 5.39694f
c7 1046 0 2.48817f
c8 1037 0 20.655f
c9 1023 0 51.1199f
c10 987 0 0.246075f
c11 957 0 9.33512f
c12 956 0 9.76076f
c13 804 0 8.83869f
c14 800 0 0.564088f
c15 459 0 0.865399f
c16 439 0 0.618017f
c17 437 0 0.328865f
c18 436 0 0.359233f
c19 17 0 0.165367f
c20 16 0 6.93673f
c21 7 0 0.165367f
c22 6 0 7.10895f
r23 1094 1095 0.00490432 
r24 1087 1088 0.02 
r25 1086 1087 0.00233766 
r26 1084 1086 0.0167532 
r27 1084 1085 0.136307 
r28 1080 1082 0.188 
r29 1072 1095 0.00756545 
r30 1068 1069 0.00730249 
r31 1067 1068 0.147331 
r32 1066 1084 0.02 
r33 1066 1067 0.124555 
r34 1096 1064 0.0389235 
r35 1064 1085 2.15863 
r36 1060 1062 0.188 
r37 1054 1056 0.000994191 
r38 1053 1054 0.0533278 
r39 1052 1053 0.0510705 
r40 1049 1052 0.00248963 
r41 1068 1045 0.078125 
r42 1045 1046 0.0030997 
r43 1067 1044 0.00284091 
r44 1044 1045 0.0625378 
r45 1030 1105 0.00707965 
r46 1102 1030 0.000707965 
r47 1028 1030 3 
r48 1022 1023 0.00532381 
r49 1021 1022 0.595762 
r50 1020 1021 0.0127143 
r51 1017 1020 0.0052381 
r52 989 1102 0.2136 
r53 988 1105 0.02 
r54 988 989 0.1524 
r55 987 1105 0.02 
r56 957 1102 0.2648 
r57 956 1102 0.2648 
r58 954 1102 0.2664 
r59 820 821 0.209032 
r60 806 808 0.0806452 
r61 821 804 0.104516 
r62 804 820 0.104516 
r63 804 808 0.104516 
r64 804 806 0.023871 
r65 806 800 0.75 
r66 1095 800 0.75 
r67 463 1021 0.02 
r68 463 464 0.876213 
r69 462 1037 0.0039415 
r70 1082 462 0.5 
r71 459 1080 0.202 
r72 459 1022 1.5 
r73 457 1094 0.00192379 
r74 1091 457 0.00406435 
r75 457 1052 0.05 
r76 1072 455 0.0758967 
r77 455 1053 0.00189394 
r78 453 1075 0.00176827 
r79 455 453 0.0948487 
r80 453 1054 0.05 
r81 464 452 0.723314 
r82 1094 452 0.2 
r83 450 1044 0.0641088 
r84 1040 450 0.00116818 
r85 1086 450 0.078125 
r86 1087 443 0.0236364 
r87 443 464 0.2 
r88 442 462 0.467422 
r89 1032 442 0.00394881 
r90 1062 442 0.5 
r91 439 1060 0.202 
r92 439 1020 1.5 
r93 437 1102 0.0460177 
r94 437 436 3 
r95 436 1028 0.0463158 
r96 1096 436 1.5 
r97 957 17 0.0456946 
r98 17 1102 1.22646 
r99 16 956 0.0456946 
r100 16 1102 1.22092 
r101 7 1102 1.22646 
r102 6 954 0.0456946 
r103 6 1102 1.22092 
r104 5 987 0.1876 
r105 5 7 0.0456946 
.ends

.subckt PM_APVDI%VSS 171 177 261 263 265 267 269 271 273 275 278 295 299 306
c0 306 0 59.6989f
c1 295 0 1.1887f
c2 288 0 1.07751f
c3 283 0 1.15064f
c4 277 0 1.37535f
c5 275 0 2.0778f
c6 273 0 2.09144f
c7 271 0 2.09259f
c8 269 0 2.04432f
c9 267 0 2.06424f
c10 265 0 2.06424f
c11 263 0 2.06424f
c12 261 0 2.07949f
c13 244 0 2.38912f
c14 177 0 3.75288f
c15 176 0 26.8066f
c16 171 0 2.08157f
c17 170 0 7.02656f
c18 161 0 22.3886f
c19 27 0 0.23417f
c20 26 0 4.98102f
r21 303 304 0.105506 
r22 302 303 0.0222353 
r23 299 302 0.00127059 
r24 295 297 0.309 
r25 291 304 0.125 
r26 288 291 0.0290749 
r27 283 286 0.0286974 
r28 283 303 0.104167 
r29 277 278 0.02 
r30 183 184 0.300779 
r31 179 184 0.0833333 
r32 177 183 0.0833333 
r33 184 176 0.14026 
r34 288 176 0.2 
r35 174 183 0.154935 
r36 286 174 0.171429 
r37 170 275 0.35928 
r38 170 273 0.35288 
r39 170 271 0.35288 
r40 170 269 0.35288 
r41 170 267 0.35928 
r42 170 265 0.35928 
r43 170 263 0.35928 
r44 170 261 0.35928 
r45 170 179 0.0581012 
r46 170 171 0.35928 
r47 161 244 0.5605 
r48 161 177 0.0198374 
r49 36 177 0.5605 
r50 244 27 0.0446983 
r51 26 36 0.0446983 
r52 26 27 1.21 
r53 4 306 0.00126824 
r54 304 4 0.0226588 
r55 297 4 0.25 
r56 277 1 0.297 
r57 1 302 0.25 
.ends

