* File: pt3b01d.dist.sp.pex
* Created: Sun Jul  4 12:56:53 2010
* Program "Calibre xRC"
* Version "v2008.4_19.14"
* Nominal Temperature: 27C
* Circuit Temperature: 27C
* 
.subckt PM_PT3B01D%PAD 21 50 79 108 137 166 218 242 266 290 320 326 389 428 452
+ 459
c0 467 0 26.8888f
c1 460 0 84.1857f
c2 459 0 64.3341f
c3 456 0 159.215f
c4 451 0 1.02644f
c5 444 0 9.96789f
c6 434 0 12.9772f
c7 425 0 0.117887f
c8 423 0 212.608f
c9 408 0 15.3329f
c10 397 0 46.9231f
c11 392 0 65.4578f
c12 390 0 15.8901f
c13 389 0 1.04909f
c14 388 0 3.85076f
c15 326 0 13.4439f
c16 320 0 13.4329f
c17 290 0 13.4291f
c18 266 0 13.4412f
c19 242 0 13.7144f
c20 218 0 13.4278f
c21 176 0 7.52869f
c22 166 0 2.97566f
c23 149 0 6.78268f
c24 137 0 2.97579f
c25 120 0 6.78268f
c26 108 0 2.97579f
c27 91 0 6.78268f
c28 79 0 2.97579f
c29 62 0 6.78268f
c30 50 0 2.97579f
c31 33 0 6.78268f
c32 21 0 2.97566f
c33 4 0 6.78268f
r34 467 468 0.118407 
r35 466 467 0.118407 
r36 465 466 0.056883 
r37 464 465 0.061524 
r38 463 464 0.118407 
r39 462 463 0.0830354 
r40 461 462 0.0353716 
r41 459 460 0.012377 
r42 457 459 0.000698598 
r43 456 457 0.0669731 
r44 451 452 0.00916 
r45 444 462 0.0545455 
r46 434 465 0.015 
r47 425 428 0.00916 
r48 425 451 2 
r49 423 434 0.0264274 
r50 421 423 0.147454 
r51 421 422 0.0288462 
r52 415 416 0.00752787 
r53 414 415 0.021023 
r54 412 414 0.000537705 
r55 412 456 0.00162999 
r56 410 412 0.000537705 
r57 408 410 0.0285508 
r58 399 451 0.1388 
r59 398 399 0.132996 
r60 397 398 0.0171733 
r61 394 395 0.0171733 
r62 393 394 0.0171733 
r63 392 393 0.0171733 
r64 391 397 0.0142401 
r65 391 395 0.00293318 
r66 390 422 0.00646891 
r67 390 392 0.00818451 
r68 388 444 0.202116 
r69 388 389 0.0147368 
r70 315 320 0.0072093 
r71 392 315 0.0566038 
r72 313 326 0.0072093 
r73 398 313 0.0566038 
r74 286 290 0.0072093 
r75 397 286 0.0566038 
r76 262 266 0.0072093 
r77 395 262 0.0566038 
r78 238 242 0.0072093 
r79 394 238 0.0566038 
r80 214 218 0.0072093 
r81 393 214 0.0566038 
r82 194 197 0.0022831 
r83 416 194 0.0375475 
r84 194 457 0.00547945 
r85 414 193 0.00210084 
r86 191 193 0.000537705 
r87 410 191 0.00210084 
r88 193 182 0.0105115 
r89 415 182 0.00712251 
r90 178 197 0.0187738 
r91 182 178 0.00376393 
r92 416 178 0.00712251 
r93 176 191 0.0142754 
r94 408 176 0.00356125 
r95 460 173 0.345778 
r96 172 468 0.0220132 
r97 172 173 0.319822 
r98 166 153 0.00249413 
r99 173 153 0.0425532 
r100 149 166 0.00249413 
r101 173 149 0.0425532 
r102 460 144 0.345778 
r103 143 467 0.0220132 
r104 143 144 0.319822 
r105 137 124 0.00249413 
r106 144 124 0.0425532 
r107 120 137 0.00249413 
r108 144 120 0.0425532 
r109 460 115 0.345778 
r110 114 466 0.0220132 
r111 114 115 0.319822 
r112 108 95 0.00249413 
r113 115 95 0.0425532 
r114 91 108 0.00249413 
r115 115 91 0.0425532 
r116 460 86 0.345778 
r117 85 464 0.0220132 
r118 85 86 0.319822 
r119 79 66 0.00249413 
r120 86 66 0.0425532 
r121 62 79 0.00249413 
r122 86 62 0.0425532 
r123 460 57 0.345778 
r124 56 463 0.0220132 
r125 56 57 0.319822 
r126 50 37 0.00249413 
r127 57 37 0.0425532 
r128 33 50 0.00249413 
r129 57 33 0.0425532 
r130 460 28 0.345778 
r131 27 461 0.0220132 
r132 27 28 0.319822 
r133 21 8 0.00249413 
r134 28 8 0.0425532 
r135 4 21 0.00249413 
r136 28 4 0.0425532 
.ends

.subckt PM_PT3B01D%noxref_2 8 18
c0 20 0 4.82409f
c1 18 0 0.993329f
c2 8 0 6.7087f
r3 18 20 0.158105 
r4 20 8 0.158526 
.ends

.subckt PM_PT3B01D%net_m26_VSSO_res 23 101 105 109 113 117
c0 117 0 0.519409f
c1 113 0 0.519409f
c2 109 0 0.519409f
c3 105 0 0.733303f
c4 101 0 0.73297f
c5 97 0 0.864037f
c6 91 0 0.0518462f
c7 57 0 0.0631005f
c8 47 0 0.242979f
c9 46 0 0.19588f
c10 45 0 0.135544f
c11 44 0 0.102874f
c12 43 0 0.162435f
c13 23 0 0.561629f
c14 21 0 0.0477785f
c15 20 0 0.371634f
r16 92 97 0.0552941 
r17 91 92 0.02 
r18 90 91 0.124706 
r19 58 101 85 
r20 56 117 85 
r21 56 57 0.93595 
r22 55 113 85 
r23 54 55 1.5553 
r24 53 97 2.20253 
r25 52 54 6.2212 
r26 52 53 1.5553 
r27 51 109 85 
r28 50 52 10.0922 
r29 50 51 1.5553 
r30 49 105 85 
r31 48 57 2.23066 
r32 47 58 3.37824 
r33 47 48 10.8571 
r34 46 54 4.70046 
r35 45 57 2.23066 
r36 45 46 9 
r37 44 49 3.37824 
r38 43 50 2.90323 
r39 43 44 10.8571 
r40 22 23 0.18 
r41 90 21 0.0446983 
r42 20 22 0.0446983 
r43 20 21 0.521176 
.ends

.subckt PM_PT3B01D%U27_padr 40 46 54 116 118 120 161 169
c0 262 0 16.1457f
c1 256 0 9.28968f
c2 249 0 1.97955f
c3 245 0 15.9237f
c4 228 0 0.146231f
c5 227 0 0.0373445f
c6 226 0 0.0462617f
c7 225 0 0.0871675f
c8 222 0 6.59892f
c9 219 0 0.608503f
c10 218 0 0.133457f
c11 215 0 5.64692f
c12 213 0 0.516633f
c13 211 0 0.0693973f
c14 210 0 0.207306f
c15 209 0 0.411447f
c16 205 0 0.694794f
c17 199 0 1.03201f
c18 192 0 14.2603f
c19 190 0 1.73874f
c20 181 0 1.5513f
c21 174 0 0.420445f
c22 169 0 1.06983f
c23 168 0 0.703821f
c24 167 0 0.0771729f
c25 166 0 0.490096f
c26 163 0 0.669226f
c27 161 0 5.5788e-21
c28 142 0 0.093022f
c29 136 0 0.0843457f
c30 128 0 16.1003f
c31 120 0 1.11746f
c32 118 0 0.570554f
c33 116 0 1.02507f
c34 86 0 0.39755f
c35 83 0 0.379876f
c36 82 0 0.361574f
c37 80 0 0.413908f
c38 76 0 0.426997f
c39 73 0 0.43683f
c40 70 0 0.226785f
c41 69 0 0.0211987f
c42 68 0 0.0739078f
c43 66 0 0.049455f
c44 65 0 0.0449f
c45 64 0 0.0790343f
c46 60 0 0.302392f
c47 58 0 0.0282286f
c48 57 0 0.0954138f
c49 54 0 1.27492f
c50 51 0 0.0419982f
c51 50 0 0.384368f
c52 46 0 2.00796f
c53 44 0 0.44954f
c54 40 0 1.24826f
r55 262 247 0.172857 
r56 245 247 6 
r57 241 243 2.61067 
r58 228 230 3 
r59 227 228 0.109474 
r60 227 225 0.0456991 
r61 225 226 0.147143 
r62 222 262 2 
r63 220 226 0.0446983 
r64 220 222 10.3129 
r65 219 230 0.30381 
r66 256 215 0.185079 
r67 213 215 1.2 
r68 212 213 0.482857 
r69 210 212 0.0446983 
r70 210 211 0.125714 
r71 209 211 0.0446983 
r72 208 219 0.0446983 
r73 208 209 0.407619 
r74 205 249 6 
r75 203 218 0.15871 
r76 203 205 0.867097 
r77 201 245 1.748 
r78 243 201 10.6187 
r79 199 201 6 
r80 218 199 1.56387 
r81 190 192 0.765 
r82 176 249 2.38452 
r83 168 256 0.18836 
r84 168 169 0.0147368 
r85 166 176 0.0446983 
r86 166 167 0.619355 
r87 163 167 0.0456388 
r88 162 174 0.0200258 
r89 162 163 0.791 
r90 161 174 0.00412903 
r91 127 128 0.434667 
r92 108 120 168.333 
r93 108 142 3.92502 
r94 103 118 51.6667 
r95 102 103 1.66667 
r96 95 116 168.333 
r97 136 95 3.6393 
r98 190 90 6 
r99 87 196 0.8025 
r100 192 87 2.0825 
r101 87 128 6 
r102 86 142 0.77 
r103 196 86 6 
r104 83 188 1.2525 
r105 83 243 6 
r106 82 136 0.7825 
r107 188 82 6 
r108 181 80 6 
r109 77 184 0.8 
r110 181 77 2.88 
r111 77 127 6 
r112 184 76 6 
r113 73 179 0.482667 
r114 73 241 6 
r115 72 127 2.38133 
r116 179 72 6 
r117 70 90 0.05 
r118 66 76 0.642857 
r119 65 80 0.642857 
r120 64 70 0.0446983 
r121 63 69 0.0338756 
r122 63 64 0.1875 
r123 60 102 1.16667 
r124 59 69 0.0338756 
r125 59 60 0.245 
r126 57 69 0.00880368 
r127 57 58 0.25 
r128 53 58 0.0446983 
r129 53 54 1.2575 
r130 52 54 1.3775 
r131 50 52 0.0447588 
r132 50 51 0.544 
r133 68 46 2.375 
r134 44 68 0.12 
r135 43 66 0.0449572 
r136 43 44 0.8475 
r137 39 65 0.0449572 
r138 39 40 1.4975 
r139 38 51 0.0447588 
r140 38 40 1.3775 
.ends

.subckt PM_PT3B01D%net_m57_VDDO_res 8 39
c0 39 0 2.11047f
c1 34 0 1.31623f
c2 18 0 0.0804506f
c3 15 0 0.168554f
c4 10 0 0.0679088f
c5 9 0 0.729114f
c6 8 0 0.363692f
c7 6 0 0.183077f
r8 36 39 3.87662 
r9 17 34 43.5 
r10 16 34 49.5 
r11 18 15 16.5 
r12 11 18 4.13452 
r13 10 16 3.35237 
r14 9 15 3.35237 
r15 9 10 56.025 
r16 11 8 6.95493 
r17 7 36 1.62175 
r18 7 8 5.625 
r19 6 17 3.35237 
r20 6 8 5.625 
.ends

.subckt PM_PT3B01D%VSSO 400 404 449 763 767 774 803 810 817 837 839 844 850 859
+ 865 871 880 886 895 901 907 916 922 928 935 944 950 962 1012 1018 1022 1028
c0 1028 0 31.6916f
c1 1015 0 1.99786f
c2 1012 0 46.3467f
c3 994 0 7.8411f
c4 992 0 6.85808f
c5 987 0 6.85767f
c6 982 0 6.85767f
c7 977 0 6.85767f
c8 972 0 6.85767f
c9 957 0 8.95235f
c10 950 0 0.342408f
c11 935 0 0.339795f
c12 928 0 1.36597f
c13 922 0 1.40025f
c14 907 0 1.35721f
c15 901 0 1.35624f
c16 886 0 1.34294f
c17 871 0 1.0242f
c18 865 0 1.10773f
c19 850 0 0.841947f
c20 844 0 1.36525f
c21 842 0 0.198397f
c22 837 0 8.25608e-19
c23 835 0 8.96457f
c24 822 0 7.7679f
c25 816 0 1.27875f
c26 806 0 1.65707f
c27 803 0 57.8645f
c28 770 0 1.32473f
c29 767 0 10.2828f
c30 755 0 0.107661f
c31 749 0 4.75436f
c32 746 0 0.117384f
c33 745 0 0.0408183f
c34 744 0 1.50576f
c35 742 0 0.0508991f
c36 741 0 0.316672f
c37 740 0 0.609572f
c38 734 0 0.582661f
c39 730 0 0.708327f
c40 728 0 0.031775f
c41 727 0 3.246f
c42 725 0 0.383003f
c43 724 0 0.713156f
c44 723 0 0.298684f
c45 722 0 3.27473f
c46 721 0 0.383249f
c47 720 0 1.84371f
c48 718 0 0.0561467f
c49 717 0 0.182743f
c50 716 0 0.34311f
c51 683 0 0.122915f
c52 682 0 9.05134f
c53 649 0 0.260002f
c54 645 0 7.03694f
c55 642 0 0.146306f
c56 449 0 0.604573f
c57 424 0 0.824961f
c58 422 0 0.100241f
c59 420 0 0.0540025f
c60 418 0 1.3932f
c61 417 0 0.0278921f
c62 404 0 0.77777f
c63 403 0 0.107939f
c64 400 0 0.557427f
c65 396 0 0.0481914f
c66 395 0 0.440503f
c67 382 0 0.114892f
c68 315 0 5.23757f
c69 282 0 14.0527f
c70 232 0 14.0521f
c71 182 0 14.0521f
c72 132 0 14.0521f
c73 82 0 14.0521f
c74 10 0 0.146306f
r75 1026 1028 0.00282778 
r76 1025 1026 0.355444 
r77 1022 1025 0.00283333 
r78 1017 1019 0.0213115 
r79 1017 1018 0.02 
r80 1015 1017 0.00327869 
r81 1009 1010 0.125561 
r82 1008 1009 0.0406417 
r83 1007 1008 0.0396791 
r84 1006 1007 0.043262 
r85 1005 1006 0.0347594 
r86 1004 1005 0.0198396 
r87 1003 1004 0.0992513 
r88 1002 1003 0.0253476 
r89 1001 1002 0.0334759 
r90 1000 1001 0.0629947 
r91 999 1000 0.0226738 
r92 998 1015 0.02 
r93 998 999 0.0816043 
r94 966 967 0.0140639 
r95 961 962 0.0126606 
r96 994 959 0.0113761 
r97 957 959 0.0638298 
r98 954 1010 2 
r99 950 954 0.000380952 
r100 935 1009 2 
r101 931 1008 0.6 
r102 928 931 0.285 
r103 925 1007 0.6 
r104 922 925 0.32 
r105 910 1006 0.6 
r106 907 910 0.36 
r107 904 1005 0.6 
r108 901 904 0.37 
r109 889 1003 0.6 
r110 886 889 0.3225 
r111 874 1002 0.6 
r112 871 874 0.325 
r113 868 1001 0.6 
r114 865 868 0.3425 
r115 853 1000 0.75 
r116 850 853 0.04 
r117 847 999 0.6 
r118 844 847 0.365 
r119 837 961 0.013211 
r120 957 837 0.000917431 
r121 835 837 0.000913242 
r122 835 966 0.0638298 
r123 822 966 0.0113242 
r124 820 822 0.0327869 
r125 819 820 0.029258 
r126 816 819 0.0131449 
r127 816 817 0.02 
r128 813 1026 0.357143 
r129 810 813 0.21 
r130 808 1012 0.00544385 
r131 1010 808 0.0345455 
r132 806 808 1 
r133 806 810 0.445 
r134 801 803 0.00612761 
r135 801 994 0.0327869 
r136 944 799 0.130435 
r137 799 992 0.00301741 
r138 989 799 0.00301741 
r139 797 799 0.0266667 
r140 797 801 0.0287785 
r141 916 796 0.130435 
r142 796 987 0.00301741 
r143 984 796 0.00301741 
r144 794 796 0.0266667 
r145 794 797 0.0242129 
r146 895 793 0.130435 
r147 793 982 0.00301741 
r148 979 793 0.00301741 
r149 791 793 0.0266667 
r150 791 794 0.0242129 
r151 790 791 0.000615582 
r152 880 789 0.130435 
r153 789 977 0.00301741 
r154 974 789 0.00301741 
r155 787 789 0.0266667 
r156 787 790 0.0235973 
r157 859 786 0.130435 
r158 786 972 0.00301741 
r159 969 786 0.00301741 
r160 784 786 0.0266667 
r161 784 787 0.0242129 
r162 783 819 0.02 
r163 783 784 0.0277012 
r164 820 780 0.446124 
r165 777 1025 0.357143 
r166 774 777 0.21 
r167 772 1021 0.144162 
r168 1019 772 0.0334426 
r169 770 772 1 
r170 770 774 0.445 
r171 758 842 3 
r172 755 758 0.0536842 
r173 748 755 0.02 
r174 748 749 6.35789 
r175 745 746 0.1275 
r176 744 745 0.0448391 
r177 743 744 2.75862 
r178 741 743 0.044715 
r179 741 742 0.466667 
r180 740 742 0.0450432 
r181 1021 740 1.29371 
r182 734 755 0.02 
r183 734 735 0.746316 
r184 732 962 0.230275 
r185 730 957 0.210275 
r186 728 842 0.109474 
r187 726 839 0.229041 
r188 726 727 0.0863581 
r189 724 835 0.209132 
r190 724 725 0.0863581 
r191 732 722 0.0861375 
r192 722 723 0.132033 
r193 730 721 0.0861375 
r194 728 720 0.0420103 
r195 719 720 3.01467 
r196 717 719 0.0446983 
r197 717 718 0.278667 
r198 716 718 0.0447588 
r199 683 837 0.128 
r200 682 723 0.0473573 
r201 682 837 0.126 
r202 649 683 0.0473573 
r203 727 649 0.132033 
r204 645 837 0.126 
r205 643 837 0.128 
r206 642 643 0.0473573 
r207 642 725 0.250407 
r208 749 426 6 
r209 1004 424 0.75 
r210 746 422 3 
r211 420 449 0.0494737 
r212 735 420 2 
r213 417 424 0.437895 
r214 417 418 0.0407126 
r215 403 426 0.0413535 
r216 403 404 1.14783 
r217 399 400 0.221176 
r218 395 399 0.0446983 
r219 395 396 0.608235 
r220 393 396 0.0446983 
r221 393 418 2.01647 
r222 382 716 0.6025 
r223 382 422 0.0265396 
r224 318 767 0.0419737 
r225 763 318 0.0413851 
r226 790 318 0.00128205 
r227 780 315 2.21804 
r228 315 1019 0.6 
r229 944 282 0.00313778 
r230 992 282 0.0652174 
r231 959 271 0.0141284 
r232 271 961 0.0652174 
r233 916 232 0.00313778 
r234 987 232 0.0652174 
r235 222 944 0.00313778 
r236 989 222 0.0652174 
r237 895 182 0.00313778 
r238 982 182 0.0652174 
r239 172 916 0.00313778 
r240 984 172 0.0652174 
r241 880 132 0.00313778 
r242 977 132 0.0652174 
r243 122 895 0.00313778 
r244 979 122 0.0652174 
r245 859 82 0.00313778 
r246 972 82 0.0652174 
r247 72 880 0.00313778 
r248 974 72 0.0652174 
r249 32 839 0.0126027 
r250 837 32 0.0131507 
r251 967 32 0.0652174 
r252 22 859 0.00313778 
r253 969 22 0.0652174 
r254 10 721 0.250407 
r255 10 645 0.0473573 
.ends

.subckt PM_PT3B01D%VSS 587 814 836 848 868 873 885 888 894
c0 894 0 88.8693f
c1 885 0 55.3507f
c2 871 0 2.37405f
c3 868 0 0.00368951f
c4 865 0 1.2436f
c5 848 0 4.22023f
c6 847 0 14.0669f
c7 833 0 1.88726f
c8 825 0 15.6287f
c9 811 0 1.45509f
c10 796 0 25.2965f
c11 786 0 0.0842555f
c12 785 0 10.1563f
c13 784 0 0.0657505f
c14 783 0 7.79695f
c15 782 0 0.729043f
c16 781 0 0.269279f
c17 779 0 0.849329f
c18 778 0 0.0372194f
c19 771 0 0.198007f
c20 762 0 8.75024f
c21 759 0 0.25357f
c22 757 0 1.92721f
c23 639 0 2.4925f
c24 634 0 1.16067f
c25 629 0 2.25025f
c26 620 0 1.87502f
c27 618 0 0.257408f
c28 616 0 0.276497f
c29 613 0 26.0718f
c30 607 0 0.816164f
c31 606 0 6.34069f
c32 603 0 0.100013f
c33 600 0 2.03933f
c34 594 0 0.137389f
c35 593 0 2.48682f
c36 592 0 0.154374f
c37 591 0 2.26491f
c38 587 0 0.00279637f
c39 539 0 0.162892f
c40 537 0 0.721903f
c41 535 0 0.203897f
c42 510 0 2.94262f
c43 496 0 3.0577f
c44 494 0 0.031054f
c45 490 0 7.73887f
c46 489 0 0.203811f
c47 474 0 5.70482f
c48 471 0 3.25515f
r49 892 894 0.000702051 
r50 891 892 0.0832563 
r51 888 891 0.000703354 
r52 884 885 0.00318245 
r53 881 882 0.0344168 
r54 880 881 0.167059 
r55 879 880 0.128215 
r56 878 879 0.000358923 
r57 877 878 0.0141176 
r58 871 884 0.461538 
r59 865 868 1.28857 
r60 865 882 1.5 
r61 859 880 0.0535714 
r62 853 855 0.0154762 
r63 853 879 2 
r64 847 848 2.4155 
r65 840 884 0.00119641 
r66 882 840 0.0758524 
r67 838 840 0.428571 
r68 836 838 0.189 
r69 833 836 0.013 
r70 833 892 0.131579 
r71 829 830 0.56934 
r72 828 829 1.12447 
r73 825 828 0.628223 
r74 825 881 0.3 
r75 818 877 0.089651 
r76 873 818 0.00438684 
r77 816 818 0.428571 
r78 814 816 0.189 
r79 811 814 0.013 
r80 811 891 0.131579 
r81 848 805 2.59036 
r82 785 786 0.0338756 
r83 783 859 2.8715 
r84 783 784 0.0338756 
r85 777 786 0.0338756 
r86 776 784 0.0338756 
r87 773 786 0.00880368 
r88 773 848 0.958 
r89 772 784 0.00880368 
r90 772 848 0.986 
r91 771 779 0.0574488 
r92 781 771 0.0632911 
r93 768 778 0.0448201 
r94 765 871 1.518 
r95 764 871 0.426 
r96 762 805 1.08482 
r97 757 768 2.13041 
r98 634 853 0.0295238 
r99 634 879 1 
r100 785 631 0.733 
r101 848 631 1.93 
r102 629 798 3 
r103 626 859 1.612 
r104 778 626 1.283 
r105 626 878 1.5 
r106 624 848 1.07807 
r107 759 624 1.06072 
r108 624 639 1 
r109 798 620 0.24 
r110 829 620 1.5 
r111 631 618 3 
r112 828 618 3 
r113 616 805 3 
r114 830 616 3 
r115 613 822 1.1314 
r116 613 877 0.125 
r117 612 639 0.0075 
r118 636 612 0.056 
r119 822 612 0.24 
r120 610 782 0.102486 
r121 610 781 0.0155975 
r122 796 610 1 
r123 608 796 0.9662 
r124 608 636 0.02 
r125 607 777 0.5005 
r126 765 607 0.0446983 
r127 606 776 0.5005 
r128 764 606 0.0446983 
r129 605 629 0.830244 
r130 604 629 0.573659 
r131 603 847 0.688 
r132 757 603 0.0448201 
r133 599 600 1.37048 
r134 594 605 0.0448242 
r135 594 595 0.678222 
r136 593 600 0.0447675 
r137 593 595 0.650667 
r138 592 604 0.0446983 
r139 591 599 0.0447067 
r140 591 592 1.45854 
r141 855 587 0.31875 
r142 538 539 0.147619 
r143 534 535 0.14988 
r144 762 534 0.0380723 
r145 531 533 0.143333 
r146 759 530 0.0385542 
r147 528 530 0.14506 
r148 848 527 0.159 
r149 510 848 0.159 
r150 509 539 0.02 
r151 509 527 1.247 
r152 508 535 0.02 
r153 508 510 1.243 
r154 848 507 0.192 
r155 505 848 0.192 
r156 504 505 0.342 
r157 848 504 0.192 
r158 502 848 0.192 
r159 501 502 0.342 
r160 848 501 0.192 
r161 499 848 0.192 
r162 498 499 0.342 
r163 848 498 0.192 
r164 496 848 0.192 
r165 495 538 0.02 
r166 495 507 1.214 
r167 494 537 0.04 
r168 494 496 0.243 
r169 492 534 0.02 
r170 492 537 0.938734 
r171 490 538 0.0380952 
r172 490 782 4.80524 
r173 489 779 0.555238 
r174 489 533 0.0380952 
r175 848 485 0.159 
r176 483 848 0.159 
r177 482 483 0.408 
r178 848 482 0.159 
r179 480 848 0.159 
r180 479 480 0.408 
r181 848 479 0.159 
r182 477 848 0.159 
r183 476 477 0.408 
r184 848 476 0.159 
r185 474 848 0.159 
r186 473 533 0.02 
r187 473 485 1.247 
r188 472 530 0.02 
r189 472 474 1.243 
r190 471 531 0.02 
r191 470 528 0.02 
r192 470 471 4.69271 
.ends

.subckt PM_PT3B01D%U27_U69$9_gate 245 250 255 260 265 270 275 280 285 290 310
c0 448 0 0.253192f
c1 444 0 0.130993f
c2 442 0 0.500823f
c3 437 0 0.500823f
c4 432 0 0.500823f
c5 427 0 0.500823f
c6 418 0 2.82679f
c7 402 0 11.1678f
c8 401 0 0.301614f
c9 399 0 0.0792102f
c10 398 0 0.329409f
c11 394 0 0.0822236f
c12 393 0 0.39325f
c13 390 0 6.54958f
c14 374 0 0.292678f
c15 369 0 0.136486f
c16 363 0 0.0903556f
c17 355 0 0.171303f
c18 349 0 0.685989f
c19 341 0 0.542719f
c20 333 0 0.542719f
c21 325 0 0.542719f
c22 317 0 0.542719f
c23 311 0 0.312819f
c24 310 0 0.278026f
c25 301 0 0.159792f
c26 300 0 0.640056f
c27 299 0 0.167968f
c28 298 0 0.643459f
c29 297 0 0.16869f
c30 296 0 0.640056f
c31 295 0 0.167968f
c32 294 0 0.640056f
c33 293 0 0.167968f
c34 292 0 0.554745f
c35 290 0 3.10391f
c36 285 0 3.04886f
c37 280 0 3.04886f
c38 275 0 3.04886f
c39 270 0 3.04886f
c40 265 0 3.04886f
c41 260 0 3.04886f
c42 255 0 3.04886f
c43 250 0 3.04886f
c44 245 0 3.10442f
r45 400 401 0.654286 
r46 398 401 0.0446983 
r47 398 399 0.352857 
r48 397 448 0.00341463 
r49 395 397 3 
r50 394 402 0.04 
r51 394 395 0.116145 
r52 393 400 0.0607454 
r53 393 395 0.00289157 
r54 390 444 6 
r55 388 399 0.0448488 
r56 388 390 6.78194 
r57 387 442 0.00195122 
r58 439 387 0.0536585 
r59 385 387 1.5 
r60 402 385 1.62683 
r61 384 437 0.000487805 
r62 434 384 0.055122 
r63 382 384 1.5 
r64 382 385 0.919512 
r65 381 432 0.00292683 
r66 429 381 0.0526829 
r67 379 381 1.5 
r68 379 382 0.923415 
r69 378 427 0.00536585 
r70 424 378 0.0502439 
r71 376 378 1.5 
r72 376 379 0.923415 
r73 420 374 0.0521951 
r74 372 374 3 
r75 372 376 0.863415 
r76 367 444 0.130323 
r77 366 369 0.153548 
r78 366 367 0.02 
r79 363 418 6 
r80 361 369 0.02 
r81 361 363 0.132903 
r82 360 418 3.99613 
r83 359 360 0.026898 
r84 355 359 0.10143 
r85 355 310 0.106667 
r86 301 349 1.85294 
r87 300 341 5.05882 
r88 299 341 5.05882 
r89 298 333 5.05882 
r90 297 333 5.05882 
r91 296 325 5.05882 
r92 295 325 5.05882 
r93 294 317 5.05882 
r94 293 317 5.05882 
r95 292 311 1.85294 
r96 287 301 3.88985 
r97 287 290 183.96 
r98 282 300 3.88985 
r99 282 285 183.96 
r100 277 299 3.88985 
r101 277 280 183.96 
r102 272 298 3.88985 
r103 272 275 183.96 
r104 267 297 3.88985 
r105 267 270 183.96 
r106 262 296 3.88985 
r107 262 265 183.96 
r108 257 295 3.88985 
r109 257 260 183.96 
r110 252 294 3.88985 
r111 252 255 183.96 
r112 247 293 3.88985 
r113 247 250 183.96 
r114 242 292 3.88985 
r115 242 245 183.96 
r116 349 171 0.00142683 
r117 448 171 3 
r118 341 153 0.00142683 
r119 442 153 3 
r120 333 128 0.00142683 
r121 437 128 3 
r122 341 117 0.0277856 
r123 439 117 3 
r124 325 92 0.00142683 
r125 432 92 3 
r126 333 81 0.0277856 
r127 434 81 3 
r128 317 56 0.00142683 
r129 427 56 3 
r130 325 45 0.0277856 
r131 429 45 3 
r132 311 20 0.00142683 
r133 420 20 3 
r134 317 9 0.0277856 
r135 424 9 3 
.ends

.subckt PM_PT3B01D%U15_ngate 56 63 70 77 85 93 141 147
c0 191 0 16.5274f
c1 184 0 0.533277f
c2 181 0 9.62082f
c3 179 0 0.0915635f
c4 178 0 4.89359f
c5 175 0 0.195375f
c6 172 0 0.463651f
c7 170 0 0.100208f
c8 166 0 0.237872f
c9 149 0 0.635203f
c10 148 0 0.161934f
c11 147 0 3.04886f
c12 141 0 3.04886f
c13 108 0 0.134371f
c14 105 0 1.32025f
c15 104 0 0.133977f
c16 101 0 0.811457f
c17 100 0 0.0428228f
c18 99 0 0.0461791f
c19 98 0 0.0261329f
c20 97 0 0.0261329f
c21 93 0 0.986391f
c22 90 0 0.124915f
c23 89 0 1.635f
c24 85 0 1.2589f
c25 82 0 0.0767532f
c26 81 0 0.252995f
c27 77 0 1.35208f
c28 74 0 0.347486f
c29 70 0 1.42004f
c30 67 0 0.248734f
c31 63 0 1.459f
c32 61 0 0.0493083f
c33 60 0 0.28899f
c34 56 0 1.43019f
c35 8 0 0.567124f
r36 198 199 0.0817143 
r37 190 191 0.397333 
r38 187 190 6.86933 
r39 181 199 3 
r40 179 181 4.5625 
r41 177 179 0.0552323 
r42 177 178 7.88299 
r43 187 175 6 
r44 173 175 6 
r45 172 178 0.0448752 
r46 172 173 0.582667 
r47 168 170 0.0755556 
r48 166 198 0.02 
r49 159 168 0.02 
r50 184 156 0.00142683 
r51 153 184 0.0277856 
r52 149 184 5.05882 
r53 148 184 5.05882 
r54 143 149 3.88985 
r55 143 147 183.96 
r56 138 148 3.88985 
r57 138 141 183.96 
r58 108 118 0.0370021 
r59 170 108 6 
r60 105 164 2.59143 
r61 105 191 6 
r62 164 104 6 
r63 159 101 1.53143 
r64 101 190 6 
r65 99 104 0.0613333 
r66 92 93 1.2375 
r67 91 100 0.0310989 
r68 90 92 0.044713 
r69 90 91 0.152258 
r70 89 100 0.0112231 
r71 88 99 0.0447675 
r72 88 89 3.52 
r73 118 85 1.6275 
r74 83 85 1.28 
r75 81 100 0.0310989 
r76 81 82 0.301935 
r77 76 82 0.044713 
r78 76 77 1.2375 
r79 75 98 0.0338756 
r80 74 83 0.0446983 
r81 74 75 0.51 
r82 69 98 0.00880368 
r83 69 70 1.28 
r84 68 97 0.0338756 
r85 67 98 0.0338756 
r86 67 68 0.43 
r87 62 97 0.00880368 
r88 62 63 1.415 
r89 60 97 0.0338756 
r90 60 61 0.51 
r91 55 61 0.0446983 
r92 55 56 1.415 
r93 166 26 0.0204878 
r94 26 156 3 
r95 8 198 0.000285714 
r96 8 153 3 
.ends

.subckt PM_PT3B01D%net_m56_VDDO_res 7 33
c0 33 0 1.65541f
c1 29 0 0.144378f
c2 17 0 0.18416f
c3 16 0 0.796564f
c4 15 0 1.71653f
c5 14 0 0.0798666f
c6 10 0 0.0758887f
c7 9 0 0.112098f
c8 7 0 0.369559f
r9 16 33 2.05452 
r10 16 17 8.75861 
r11 15 29 66.7742 
r12 14 29 60.5806 
r13 11 15 3.35663 
r14 11 17 11.5758 
r15 10 14 3.35347 
r16 9 10 6.625 
r17 6 9 4.5965 
r18 6 7 4.56364 
.ends

.subckt PM_PT3B01D%VDDO 321 761 766 773 780 787 794 801 808 908 923 926 933 938
+ 945 971 1032 1038 1354 1358 1361 1366 1373 1380 1401 1429 1440 1448 1456 1462
+ 1468 1474 1480 1486 1537 1551 1580 1585
c0 1585 0 21.1441f
c1 1577 0 4.33677f
c2 1568 0 6.89048f
c3 1559 0 8.851f
c4 1554 0 6.00113f
c5 1551 0 51.9075f
c6 1533 0 3.00295f
c7 1499 0 9.59337f
c8 1486 0 1.39365f
c9 1480 0 2.72268f
c10 1474 0 1.38235f
c11 1468 0 1.7088f
c12 1462 0 2.04169f
c13 1456 0 2.48166f
c14 1453 0 5.46058f
c15 1437 0 0.505315f
c16 1433 0 30.9212f
c17 1432 0 1.96564f
c18 1429 0 65.0253f
c19 1428 0 1.51937f
c20 1379 0 52.7379f
c21 1369 0 0.6986f
c22 1368 0 1.41036f
c23 1366 0 3.0083f
c24 1358 0 2.51509f
c25 1346 0 0.1282f
c26 1336 0 0.331843f
c27 1332 0 0.211996f
c28 1326 0 0.234897f
c29 1316 0 0.619014f
c30 1312 0 0.300027f
c31 1308 0 0.616262f
c32 1302 0 3.03041f
c33 1300 0 0.686426f
c34 1295 0 1.5159f
c35 1290 0 2.53315f
c36 1286 0 0.0454052f
c37 1285 0 0.666283f
c38 1282 0 0.231645f
c39 1242 0 9.76182f
c40 1233 0 0.884498f
c41 1058 0 0.332309f
c42 1056 0 1.86244f
c43 1042 0 11.8127f
c44 1038 0 0.0820237f
c45 1032 0 0.481179f
c46 993 0 4.04631f
c47 988 0 0.409964f
c48 987 0 0.123663f
c49 985 0 0.246805f
c50 981 0 0.0321078f
c51 979 0 8.17666f
c52 978 0 3.41706f
c53 973 0 1.01571f
c54 970 0 0.0193183f
c55 968 0 0.0208492f
c56 967 0 5.56607f
c57 965 0 0.176144f
c58 955 0 0.0968285f
c59 952 0 0.0596675f
c60 951 0 3.19809f
c61 950 0 1.1307f
c62 945 0 1.44047f
c63 942 0 0.451293f
c64 938 0 1.3781f
c65 926 0 0.355888f
c66 923 0 0.689058f
c67 919 0 0.0304359f
c68 918 0 0.567367f
c69 908 0 1.14271f
c70 813 0 7.39449f
c71 801 0 0.0234212f
c72 794 0 0.0106158f
c73 787 0 0.0106158f
c74 780 0 0.0106158f
c75 773 0 0.0106158f
c76 766 0 0.00937345f
c77 761 0 7.65248f
c78 733 0 12.0849f
c79 731 0 19.7941f
c80 729 0 19.7938f
c81 727 0 19.82f
c82 725 0 19.7941f
c83 723 0 19.5984f
c84 721 0 11.8827f
c85 695 0 0.114944f
c86 694 0 7.03246f
c87 691 0 0.104443f
c88 690 0 6.312f
c89 321 0 0.613879f
c90 17 0 0.486838f
c91 16 0 6.738f
c92 7 0 0.152029f
c93 6 0 6.75749f
r94 1580 1583 0.00394881 
r95 1577 1578 0.956244 
r96 1570 1571 0.279231 
r97 1568 1570 0.266538 
r98 1561 1562 0.273962 
r99 1559 1561 0.261509 
r100 1555 1556 1.79477 
r101 1554 1555 0.000373832 
r102 1548 1549 0.345795 
r103 1547 1548 0.0205664 
r104 1546 1547 0.0376471 
r105 1545 1546 0.0566449 
r106 1544 1545 0.0124619 
r107 1543 1544 0.0394771 
r108 1542 1543 0.0259695 
r109 1541 1542 0.0183007 
r110 1535 1551 0.00304139 
r111 1549 1535 0.00174292 
r112 1533 1535 0.461538 
r113 1494 1496 1.30839 
r114 1489 1548 0.6 
r115 1486 1489 0.4475 
r116 1483 1547 0.6 
r117 1480 1483 1.6625 
r118 1477 1546 0.666667 
r119 1474 1477 0.365 
r120 1471 1545 0.545455 
r121 1468 1471 1.4825 
r122 1465 1544 0.545455 
r123 1462 1465 1.63 
r124 1459 1543 0.5 
r125 1456 1459 1.455 
r126 1455 1541 0.00174292 
r127 1537 1455 0.00305011 
r128 1453 1455 0.461538 
r129 1448 1577 0.2 
r130 1444 1585 0.0039415 
r131 1583 1444 0.467422 
r132 1442 1444 0.5 
r133 1440 1442 0.181 
r134 1437 1440 0.17 
r135 1437 1549 1.5 
r136 1434 1435 0.5433 
r137 1433 1434 0.2247 
r138 1432 1448 0.0539366 
r139 1432 1435 0.099 
r140 1578 1428 0.698216 
r141 1426 1428 0.2 
r142 1426 1429 0.0136564 
r143 1571 1425 0.279231 
r144 1425 1423 0.279231 
r145 1423 1421 0.279231 
r146 1421 1419 0.266538 
r147 1417 1419 1.5 
r148 1417 1421 1.5 
r149 1417 1423 1.5 
r150 1417 1425 1.5 
r151 1417 1426 0.0314855 
r152 1562 1415 0.273962 
r153 1415 1413 0.273962 
r154 1413 1411 0.273962 
r155 1411 1409 0.261509 
r156 1407 1409 1.5 
r157 1407 1411 1.5 
r158 1407 1413 1.5 
r159 1407 1415 1.5 
r160 1556 1406 0.000747664 
r161 1404 1406 0.2 
r162 1404 1407 0.0334274 
r163 1401 1404 0.01361 
r164 1395 1570 1.5 
r165 1395 1568 1.5 
r166 1395 1571 1.5 
r167 1393 1395 0.0694058 
r168 1387 1561 1.5 
r169 1387 1559 1.5 
r170 1387 1393 0.0805639 
r171 1387 1562 1.5 
r172 1383 1554 0.2 
r173 1383 1387 0.0404834 
r174 1380 1383 0.0165962 
r175 1379 1448 0.0234268 
r176 1379 1395 0.0330312 
r177 1376 1583 0.5 
r178 1373 1376 0.181 
r179 1369 1541 1.5 
r180 1369 1373 0.17 
r181 1368 1433 0.5293 
r182 1364 1366 0.0526456 
r183 1361 1364 0.0552365 
r184 1344 1346 0.12 
r185 1338 1341 3 
r186 1499 1338 0.0677429 
r187 1336 1338 3 
r188 1499 1328 0.1116 
r189 1530 1328 0.0028 
r190 1326 1328 6 
r191 1305 1494 6 
r192 1300 1302 6 
r193 1300 1305 0.752258 
r194 1297 1346 0.02 
r195 1294 1344 0.02 
r196 1294 1295 2.92286 
r197 1287 1302 2.907 
r198 1285 1287 0.0448005 
r199 1285 1286 0.685977 
r200 1281 1286 0.050458 
r201 1281 1282 0.12 
r202 1242 1530 0.2648 
r203 1241 1530 0.2664 
r204 1240 1530 0.2664 
r205 1233 1282 7.46512 
r206 1232 1282 7.46512 
r207 1051 1058 1 
r208 1048 1332 3 
r209 1045 1048 0.2885 
r210 1045 1312 2 
r211 1496 1042 1.03355 
r212 1042 1316 1.2 
r213 1037 1038 1.5785 
r214 1036 1037 1.0665 
r215 1326 1006 0.000149533 
r216 1368 1005 0.0555566 
r217 1005 1006 6 
r218 1004 1341 0.0444444 
r219 1336 1004 7.40741e-05 
r220 1368 1003 0.0279474 
r221 1003 1004 1.5 
r222 1312 1002 0.000233918 
r223 1434 1002 2 
r224 1316 1000 0.000114123 
r225 1433 1000 1.2 
r226 1058 998 0.000100503 
r227 1435 998 1 
r228 1332 996 0.000299625 
r229 1434 996 3 
r230 1308 993 6 
r231 1308 990 0.804286 
r232 990 1496 6 
r233 1297 988 0.787143 
r234 988 1037 6 
r235 987 1056 0.0561431 
r236 1295 987 6 
r237 1290 985 6 
r238 1290 982 3.395 
r239 982 1036 6 
r240 981 1032 0.0484211 
r241 1542 981 2 
r242 979 1051 0.219259 
r243 978 1048 0.0845 
r244 977 993 5.04429 
r245 971 973 0.605623 
r246 969 1045 1.917 
r247 969 970 0.0149881 
r248 967 1038 0.4775 
r249 967 968 0.013668 
r250 963 985 0.175 
r251 962 965 0.1525 
r252 962 963 0.02 
r253 955 1036 0.567 
r254 954 1533 0.526 
r255 954 979 0.0447005 
r256 953 1533 2.122 
r257 953 978 0.0446983 
r258 951 977 0.0446983 
r259 951 952 3.31857 
r260 971 950 0.584127 
r261 949 952 0.0446983 
r262 949 950 1.02286 
r263 944 970 0.0313149 
r264 944 945 1.51 
r265 943 968 0.013668 
r266 942 970 0.0149881 
r267 942 943 0.2995 
r268 937 968 0.0337919 
r269 937 938 1.64138 
r270 973 933 1.36714 
r271 923 926 0.81913 
r272 922 926 0.309565 
r273 918 922 0.0446983 
r274 918 919 1.10609 
r275 916 919 0.0447246 
r276 916 1056 4.4 
r277 907 965 0.02 
r278 907 908 1.3925 
r279 903 1453 2.122 
r280 903 955 0.0446983 
r281 813 761 0.159252 
r282 824 761 0.159252 
r283 761 831 0.159252 
r284 735 824 0.0829907 
r285 761 735 0.0291589 
r286 1578 735 0.1 
r287 766 733 0.793846 
r288 1568 733 1.5 
r289 773 731 0.55145 
r290 1570 731 1.5 
r291 780 729 0.55145 
r292 1571 729 1.5 
r293 787 727 0.55145 
r294 1425 727 1.5 
r295 794 725 0.55145 
r296 1423 725 1.5 
r297 801 723 0.55145 
r298 1421 723 1.5 
r299 808 721 0.793846 
r300 1419 721 1.5 
r301 719 766 0.842637 
r302 1559 719 1.5 
r303 717 773 0.585344 
r304 1561 717 1.5 
r305 715 780 0.585344 
r306 1562 715 1.5 
r307 713 787 0.585344 
r308 1415 713 1.5 
r309 711 794 0.585344 
r310 1413 711 1.5 
r311 709 801 0.585344 
r312 1411 709 1.5 
r313 707 808 0.842637 
r314 1409 707 1.5 
r315 761 705 0.0391734 
r316 1556 705 0.2 
r317 703 761 0.0397569 
r318 1555 703 0.2 
r319 701 831 0.73271 
r320 700 813 0.737944 
r321 699 761 0.73271 
r322 698 761 0.737944 
r323 695 699 0.0451326 
r324 695 761 2.504 
r325 694 701 0.0451326 
r326 694 761 2.44889 
r327 691 698 0.045921 
r328 691 761 2.687 
r329 690 700 0.045921 
r330 690 761 2.885 
r331 327 1417 0.0601494 
r332 1407 327 0.0634357 
r333 327 1364 0.00227273 
r334 326 1358 0.0620926 
r335 1354 326 0.0688218 
r336 1393 326 0.0025 
r337 321 1233 1.36978 
r338 321 1232 1.36978 
r339 17 1530 1.51848 