* File: pv0c.dist.sp.pex
* Created: Sun Jul  4 13:13:03 2010
* Program "Calibre xRC"
* Version "v2008.4_19.14"
* Nominal Temperature: 27C
* Circuit Temperature: 27C
* 
.subckt PM_PV0C%U33_U29_c2 137 149 229 241 252 311 316 321 325 329 333 337 343
+ 468
c0 494 0 1.17455f
c1 468 0 0.282344f
c2 458 0 0.547583f
c3 451 0 0.560233f
c4 445 0 0.548559f
c5 438 0 0.579802f
c6 432 0 0.578504f
c7 425 0 0.628626f
c8 422 0 0.141556f
c9 418 0 12.1046f
c10 414 0 0.453511f
c11 397 0 1.27462f
c12 392 0 3.34159f
c13 390 0 2.94544f
c14 389 0 0.193599f
c15 385 0 8.36779f
c16 367 0 10.3893f
c17 362 0 0.392788f
c18 361 0 0.204299f
c19 357 0 5.09213f
c20 356 0 0.0489987f
c21 349 0 0.597907f
c22 348 0 0.170161f
c23 347 0 0.597907f
c24 346 0 0.170161f
c25 345 0 0.597907f
c26 344 0 0.170161f
c27 343 0 2.38613f
c28 337 0 2.33708f
c29 333 0 2.33708f
c30 329 0 2.33708f
c31 325 0 2.33708f
c32 321 0 2.33708f
c33 316 0 2.33708f
c34 311 0 2.3856f
c35 252 0 2.64568f
c36 241 0 2.33708f
c37 234 0 0.170161f
c38 229 0 2.33708f
c39 228 0 0.170161f
c40 226 0 0.427745f
c41 149 0 2.33708f
c42 142 0 0.170161f
c43 137 0 2.33708f
c44 136 0 0.170161f
c45 134 0 0.427745f
r46 493 494 0.209538 
r47 464 493 1.5 
r48 458 498 0.105403 
r49 456 458 3 
r50 456 459 0.49122 
r51 455 456 0.213171 
r52 451 489 0.0875 
r53 449 451 3 
r54 449 455 0.333171 
r55 448 449 0.37122 
r56 445 485 0.09 
r57 443 445 3 
r58 443 448 0.323415 
r59 442 443 0.380976 
r60 438 481 0.090625 
r61 436 438 3 
r62 436 442 0.319512 
r63 435 436 0.384878 
r64 430 432 3 
r65 430 435 0.305366 
r66 429 430 0.399024 
r67 423 425 3 
r68 423 429 0.164878 
r69 422 423 0.539512 
r70 459 418 0.0721951 
r71 416 418 1.57059 
r72 422 414 1.57647 
r73 403 498 3 
r74 395 397 3 
r75 392 395 1.15037 
r76 392 494 3 
r77 399 390 0.0585121 
r78 389 403 0.024284 
r79 389 390 1.01071 
r80 387 493 0.148 
r81 385 387 3 
r82 384 399 0.0200193 
r83 384 385 3.94562 
r84 382 489 3 
r85 378 485 3 
r86 378 382 0.64 
r87 375 481 3 
r88 375 378 0.640684 
r89 432 374 0.088125 
r90 372 374 3 
r91 372 375 0.636923 
r92 425 370 0.090625 
r93 368 370 3 
r94 368 372 0.547692 
r95 367 403 0.0212894 
r96 367 382 0.486496 
r97 366 397 0.327419 
r98 364 468 0.0251685 
r99 362 364 2 
r100 361 366 0.0454005 
r101 361 362 0.0892462 
r102 357 464 0.113058 
r103 356 464 0.567493 
r104 349 455 5.05882 
r105 348 455 5.05882 
r106 347 442 5.05882 
r107 346 442 5.05882 
r108 345 429 5.05882 
r109 344 429 5.05882 
r110 339 416 1.5 
r111 339 343 367.92 
r112 334 349 5.28991 
r113 334 337 367.92 
r114 330 348 5.28991 
r115 330 333 367.944 
r116 326 347 5.28991 
r117 326 329 367.944 
r118 322 346 5.28991 
r119 322 325 367.944 
r120 318 345 5.28991 
r121 318 321 367.944 
r122 313 344 5.28991 
r123 313 316 367.92 
r124 308 414 1.5 
r125 308 311 367.92 
r126 357 257 0.0954001 
r127 257 252 1.9113 
r128 251 356 0.0954001 
r129 251 252 1.9113 
r130 448 241 363.96 
r131 234 448 3.96 
r132 228 229 367.92 
r133 226 228 5.28991 
r134 225 234 5.28991 
r135 225 226 10.1176 
r136 435 149 363.96 
r137 142 435 3.96 
r138 136 137 367.92 
r139 134 136 5.28991 
r140 133 142 5.28991 
r141 133 134 10.1176 
.ends

.subckt PM_PV0C%VSSC 275 438 753 756 759 762 765 768 771 774 777 1103 1132 1143
+ 1160 1173 1190 1218 1245 1249 1253 1257 1261 1265 1281 1295 1301 1303 1316
c0 1313 0 159.215f
c1 1310 0 10.6577f
c2 1295 0 0.321907f
c3 1286 0 3.44056f
c4 1281 0 1.24866f
c5 1265 0 9.86382f
c6 1261 0 9.71678f
c7 1257 0 9.71876f
c8 1253 0 9.7627f
c9 1249 0 9.71691f
c10 1245 0 9.76364f
c11 1234 0 3.77853f
c12 1205 0 10.8034f
c13 1194 0 184.214f
c14 1176 0 15.327f
c15 1173 0 4.53726f
c16 1162 0 6.6324f
c17 1153 0 12.7842f
c18 1151 0 62.4044f
c19 1147 0 0.625289f
c20 1146 0 0.273696f
c21 1145 0 1.12494f
c22 1140 0 12.5486f
c23 1136 0 1.51797f
c24 1135 0 12.4525f
c25 1129 0 12.4521f
c26 1126 0 12.4526f
c27 1125 0 29.7991f
c28 1106 0 109.596f
c29 1104 0 16.0297f
c30 1100 0 12.5426f
c31 1094 0 14.503f
c32 1091 0 5.29476f
c33 1089 0 0.290506f
c34 1088 0 0.763221f
c35 1087 0 0.135538f
c36 1085 0 0.135787f
c37 1082 0 0.27249f
c38 1081 0 0.753216f
c39 1080 0 0.242278f
c40 1074 0 0.992615f
c41 1070 0 1.07249f
c42 1039 0 0.110631f
c43 1038 0 7.78472f
c44 1011 0 0.110631f
c45 1010 0 5.34341f
c46 1009 0 0.219953f
c47 1008 0 5.27165f
c48 1003 0 3.37658f
c49 998 0 1.82453f
c50 994 0 3.43361f
c51 793 0 2.06396f
c52 791 0 1.89996f
c53 789 0 1.82786f
c54 787 0 1.86539f
c55 783 0 1.82124f
c56 781 0 1.82124f
c57 779 0 3.32565f
c58 777 0 2.19264f
c59 774 0 1.96605f
c60 771 0 1.96605f
c61 768 0 1.96605f
c62 765 0 1.96647f
c63 762 0 2.02967f
c64 759 0 2.03962f
c65 756 0 2.01031f
c66 753 0 2.60392f
c67 663 0 0.288305f
c68 662 0 5.59798f
c69 477 0 3.30833f
c70 353 0 14.0017f
c71 303 0 14.0017f
c72 190 0 14.0017f
c73 140 0 14.0017f
c74 114 0 7.52869f
c75 82 0 14.0017f
c76 72 0 7.95692f
c77 32 0 7.65602f
r78 1314 1316 0.000593227 
r79 1313 1314 0.066982 
r80 1285 1286 0.0551111 
r81 1284 1285 0.0497778 
r82 1283 1284 0.0497778 
r83 1282 1283 0.0497778 
r84 1281 1282 0.0339556 
r85 1279 1281 0.0151111 
r86 1279 1310 0.0714286 
r87 1277 1279 0.000711111 
r88 1276 1277 0.0497778 
r89 1275 1276 0.0497778 
r90 1274 1275 0.0497778 
r91 1272 1274 0.0551111 
r92 1233 1234 0.0899598 
r93 1232 1233 0.0899598 
r94 1231 1232 0.0899598 
r95 1229 1231 0.0257028 
r96 1229 1306 0.0714286 
r97 1205 1206 0.0181818 
r98 1200 1202 0.0288462 
r99 1199 1310 0.050101 
r100 1197 1199 0.1 
r101 1197 1200 0.107975 
r102 1196 1199 0.424242 
r103 1306 1196 0.050505 
r104 1194 1196 0.1 
r105 1194 1197 0.000685782 
r106 1193 1205 0.00937584 
r107 1193 1194 0.0384984 
r108 1189 1190 0.00425547 
r109 1183 1184 0.00752787 
r110 1182 1183 0.021023 
r111 1180 1182 0.000537705 
r112 1180 1313 0.00162999 
r113 1178 1180 0.000537705 
r114 1176 1178 0.0285508 
r115 1160 1162 0.484555 
r116 1159 1160 0.0421818 
r117 1157 1159 0.00145455 
r118 1156 1303 0.0040367 
r119 1301 1156 0.00201835 
r120 1154 1156 0.0588235 
r121 1153 1154 0.00906024 
r122 1151 1316 0.129579 
r123 1151 1153 0.36241 
r124 1295 1149 0.00209524 
r125 1147 1149 2 
r126 1146 1147 0.187857 
r127 1144 1146 0.0449135 
r128 1144 1145 0.297233 
r129 1141 1143 0.130435 
r130 1140 1141 0.013262 
r131 1151 1140 0.402139 
r132 1136 1145 0.0458413 
r133 1136 1162 0.658848 
r134 1151 1135 0.402139 
r135 1130 1132 0.130435 
r136 1129 1130 0.013262 
r137 1151 1129 0.402139 
r138 1151 1126 0.402139 
r139 1125 1141 0.384385 
r140 1125 1135 0.397647 
r141 1125 1130 0.384385 
r142 1125 1206 0.0689262 
r143 1125 1154 0.349301 
r144 1125 1126 0.397647 
r145 1123 1265 0.0072093 
r146 1121 1123 0.0566038 
r147 1120 1261 0.0072093 
r148 1118 1120 0.0566038 
r149 1118 1121 0.0171733 
r150 1117 1257 0.0072093 
r151 1115 1117 0.0566038 
r152 1115 1118 0.0171733 
r153 1114 1253 0.0072093 
r154 1112 1114 0.0566038 
r155 1112 1115 0.0171733 
r156 1111 1249 0.0072093 
r157 1109 1111 0.0566038 
r158 1109 1112 0.0171733 
r159 1108 1245 0.0072093 
r160 1106 1108 0.0566038 
r161 1106 1109 0.0171733 
r162 1105 1157 0.02 
r163 1105 1121 0.0109284 
r164 1104 1202 0.00665815 
r165 1104 1106 0.00851567 
r166 1101 1103 0.130435 
r167 1125 1101 0.384385 
r168 1100 1101 0.013262 
r169 1151 1100 0.402139 
r170 1097 1218 0.00511416 
r171 1301 1097 0.000913242 
r172 1095 1097 0.0588235 
r173 1125 1095 0.32177 
r174 1094 1095 0.00725664 
r175 1151 1094 0.332743 
r176 1090 1303 0.230275 
r177 1090 1091 0.0861375 
r178 1088 1089 0.0861375 
r179 1086 1229 0.0481928 
r180 1086 1087 0.0148221 
r181 1083 1218 0.229041 
r182 1081 1082 0.0863581 
r183 1091 1080 0.132033 
r184 1077 1089 0.162276 
r185 1075 1085 0.0148221 
r186 1075 1076 0.0627237 
r187 1074 1087 0.0148221 
r188 1074 1076 0.0627237 
r189 1071 1073 0.0899598 
r190 1070 1085 0.0148221 
r191 1070 1073 0.0738956 
r192 1039 1301 0.128 
r193 1038 1080 0.0473573 
r194 1038 1301 0.126 
r195 1301 1037 0.267 
r196 1012 1301 0.267 
r197 1011 1012 0.333 
r198 1010 1077 0.0473573 
r199 1010 1037 0.331 
r200 1009 1039 0.0473573 
r201 1083 1008 0.0863581 
r202 1008 1009 0.132033 
r203 1006 1011 0.0473573 
r204 1006 1082 0.162276 
r205 1005 1087 0.0316147 
r206 1004 1085 0.0316147 
r207 1003 1286 0.02 
r208 998 1281 0.30632 
r209 998 1277 0.02 
r210 994 1272 0.02 
r211 993 1234 0.02 
r212 992 1233 0.02 
r213 991 1232 0.02 
r214 990 1231 0.02 
r215 989 1076 0.02 
r216 988 1073 0.02 
r217 987 1071 0.02 
r218 793 1285 0.02 
r219 793 1281 0.30632 
r220 791 1284 0.02 
r221 791 1281 0.30632 
r222 789 1283 0.02 
r223 789 1281 0.30632 
r224 787 1282 0.02 
r225 787 1281 0.30632 
r226 783 1276 0.02 
r227 783 1281 0.30632 
r228 781 1275 0.02 
r229 781 1281 0.30632 
r230 779 1274 0.02 
r231 779 1281 0.30632 
r232 993 777 0.35928 
r233 992 774 0.35928 
r234 991 771 0.35928 
r235 990 768 0.35928 
r236 1005 765 0.35288 
r237 989 762 0.35288 
r238 1004 759 0.35288 
r239 988 756 0.35928 
r240 987 753 0.35928 
r241 672 1003 0.5605 
r242 662 672 0.0446983 
r243 662 663 1.21 
r244 660 663 0.0446983 
r245 660 994 0.5605 
r246 481 484 0.0022831 
r247 1184 481 0.0375475 
r248 481 1314 0.00547945 
r249 480 1173 0.0317829 
r250 1189 480 0.0714286 
r251 477 1189 0.000827912 
r252 477 1159 0.12 
r253 1182 450 0.00210084 
r254 448 450 0.000537705 
r255 1178 448 0.00210084 
r256 1135 438 0.130435 
r257 1132 353 0.00313778 
r258 1129 353 0.0652174 
r259 438 343 0.0031351 
r260 1135 343 0.0652174 
r261 303 438 0.00314046 
r262 1135 303 0.0652174 
r263 293 1143 0.00313778 
r264 1140 293 0.0652174 
r265 1126 275 0.130435 
r266 1103 190 0.00313778 
r267 1100 190 0.0652174 
r268 275 180 0.0031351 
r269 1126 180 0.0652174 
r270 140 275 0.00314046 
r271 1126 140 0.0652174 
r272 130 1132 0.00313778 
r273 1129 130 0.0652174 
r274 450 120 0.0105115 
r275 1183 120 0.00712251 
r276 116 484 0.0187738 
r277 120 116 0.00376393 
r278 1184 116 0.00712251 
r279 114 448 0.0142754 
r280 1176 114 0.00356125 
r281 1143 82 0.00313778 
r282 1140 82 0.0652174 
r283 72 1301 0.0066055 
r284 1088 72 0.224404 
r285 1153 72 0.0652174 
r286 32 1301 0.00657534 
r287 1081 32 0.223196 
r288 1094 32 0.0652174 
r289 22 1103 0.00313778 
r290 1100 22 0.0652174 
.ends

.subckt PM_PV0C%noxref_3 8 15
c0 16 0 0.315221f
c1 14 0 0.787554f
c2 13 0 0.35392f
r3 14 16 0.020045 
r4 13 15 0.0300645 
r5 13 14 0.232258 
r6 16 8 0.0675676 
.ends

.subckt PM_PV0C%VDD 25 51 77 103 139 165 716 889 937 946 977 982 987 992 997
+ 1002 1007 1028 1041 1073 1075 1083
c0 1083 0 81.6832f
c1 1072 0 12.5038f
c2 1066 0 10.8179f
c3 1062 0 10.9027f
c4 1058 0 10.903f
c5 1054 0 10.903f
c6 1050 0 10.9012f
c7 1046 0 10.8402f
c8 1040 0 30.7275f
c9 1028 0 0.0044722f
c10 1016 0 6.34538f
c11 1014 0 15.2664f
c12 951 0 5.7453f
c13 944 0 28.7685f
c14 940 0 1.59198f
c15 932 0 0.379069f
c16 930 0 0.424041f
c17 926 0 7.99956f
c18 925 0 24.6188f
c19 923 0 0.885302f
c20 921 0 4.78591f
c21 919 0 2.58938f
c22 904 0 29.3267f
c23 899 0 4.01647f
c24 889 0 1.77529f
c25 887 0 1.0255f
c26 885 0 15.5896f
c27 883 0 2.16269f
c28 882 0 15.5849f
c29 880 0 2.3515f
c30 879 0 1.14576f
c31 874 0 2.35771f
c32 873 0 0.613581f
c33 870 0 5.35018f
c34 868 0 9.56511f
c35 866 0 2.08765f
c36 864 0 15.5849f
c37 858 0 15.5903f
c38 855 0 15.5869f
c39 853 0 17.4574f
c40 849 0 9.63379f
c41 844 0 2.04356f
c42 825 0 19.047f
c43 823 0 1.85585f
c44 716 0 2.83053f
c45 667 0 0.11068f
c46 666 0 4.83537f
c47 663 0 0.0825538f
c48 662 0 5.26542f
c49 185 0 2.24699f
c50 165 0 3.80036f
c51 148 0 6.96554f
c52 139 0 3.80036f
c53 122 0 6.96557f
c54 103 0 3.80036f
c55 86 0 6.96563f
c56 77 0 3.80036f
c57 60 0 6.96554f
c58 51 0 3.79972f
c59 34 0 6.93389f
c60 25 0 3.79972f
c61 8 0 6.9385f
r62 1081 1083 0.000500966 
r63 1080 1081 0.00517064 
r64 1079 1080 0.0716484 
r65 1078 1079 0.00339987 
r66 1075 1078 0.00298777 
r67 1072 1073 0.00251444 
r68 1040 1070 0.0479428 
r69 1028 1039 0.159252 
r70 1027 1028 0.11215 
r71 1026 1027 0.11215 
r72 1028 1026 0.159252 
r73 1016 1028 0.159252 
r74 1011 1014 0.0234483 
r75 1011 1070 0.136364 
r76 980 982 0.585344 
r77 1028 974 0.159252 
r78 1028 963 0.11215 
r79 951 1028 0.159252 
r80 1066 943 0.207556 
r81 942 943 0.133333 
r82 940 941 0.0701564 
r83 939 1072 0.6 
r84 939 940 0.0313564 
r85 937 939 0.0165458 
r86 936 1072 0.0178231 
r87 1070 936 0.0647213 
r88 934 936 0.15 
r89 934 937 0.0123014 
r90 930 932 0.00179226 
r91 930 1080 0.0328947 
r92 1046 928 0.207556 
r93 927 928 0.133333 
r94 923 944 0.0442046 
r95 923 932 0.0467939 
r96 921 942 0.0391788 
r97 921 944 0.411894 
r98 941 919 0.721176 
r99 1062 917 0.207556 
r100 915 917 0.133333 
r101 1058 914 0.207556 
r102 912 914 0.133333 
r103 912 915 0.106215 
r104 1054 911 0.207556 
r105 909 911 0.133333 
r106 909 912 0.107684 
r107 1050 908 0.207556 
r108 906 908 0.133333 
r109 906 909 0.106271 
r110 905 927 0.00242303 
r111 905 906 0.10661 
r112 904 942 0.00554213 
r113 904 915 0.100169 
r114 901 926 0.0969832 
r115 901 902 0.24 
r116 899 927 0.042842 
r117 899 925 0.522134 
r118 1040 897 0.290018 
r119 895 897 0.046875 
r120 895 898 0.00505405 
r121 892 1078 0.0231481 
r122 892 895 0.00440541 
r123 892 1079 0.0308642 
r124 889 892 0.0054955 
r125 888 926 0.0495568 
r126 888 898 0.0701712 
r127 887 925 0.0495568 
r128 887 889 0.0815315 
r129 997 885 0.55145 
r130 883 885 1.5 
r131 883 886 0.0683661 
r132 982 882 0.55145 
r133 880 882 1.5 
r134 876 997 0.585344 
r135 874 876 1.5 
r136 874 877 0.0682665 
r137 946 873 0.170337 
r138 871 873 3 
r139 870 871 0.0629923 
r140 870 902 0.105953 
r141 1002 868 0.793846 
r142 866 868 1.5 
r143 886 866 0.194615 
r144 977 864 0.55145 
r145 862 864 1.5 
r146 1028 861 0.0361055 
r147 859 861 0.139535 
r148 859 862 0.0507715 
r149 992 858 0.55145 
r150 856 858 1.5 
r151 856 859 0.03377 
r152 987 855 0.55145 
r153 853 855 1.5 
r154 853 856 0.0845415 
r155 852 883 0.0143814 
r156 852 862 0.0701601 
r157 851 880 0.000524017 
r158 851 853 0.0840175 
r159 1007 849 0.793846 
r160 848 879 0.0972918 
r161 848 849 1.5 
r162 846 1002 0.842637 
r163 844 846 1.5 
r164 877 844 0.189811 
r165 841 1007 0.83956 
r166 840 870 0.0977991 
r167 840 841 1.5 
r168 839 977 0.587786 
r169 837 839 1.5 
r170 836 1028 0.103925 
r171 963 836 0.0553271 
r172 834 836 0.139535 
r173 834 837 0.049722 
r174 833 992 0.585344 
r175 831 833 1.5 
r176 831 834 0.033072 
r177 830 987 0.585344 
r178 828 830 1.5 
r179 828 831 0.082794 
r180 825 980 1.5 
r181 825 828 0.082794 
r182 824 874 0.0145631 
r183 824 837 0.0682309 
r184 823 871 0.0136965 
r185 823 825 0.0202994 
r186 1014 716 3.42631 
r187 685 1039 0.19514 
r188 684 1016 0.19514 
r189 667 1028 2.11181 
r190 666 685 0.0456322 
r191 666 1028 2.10217 
r192 663 1028 2.181 
r193 662 684 0.045921 
r194 662 1028 2.191 
r195 656 974 0.19514 
r196 656 667 0.0456322 
r197 655 951 0.19514 
r198 655 663 0.045921 
r199 194 934 0.00463544 
r200 930 194 0.00734012 
r201 194 1081 0.0384615 
r202 189 897 0.0213042 
r203 1041 189 0.00408743 
r204 898 189 0.6 
r205 919 185 0.75 
r206 181 880 0.039476 
r207 181 879 0.0427475 
r208 181 185 0.313053 
r209 165 152 0.00249413 
r210 1058 152 0.0425532 
r211 148 165 0.00249413 
r212 1058 148 0.0425532 
r213 139 126 0.00249413 
r214 1062 126 0.0425532 
r215 122 139 0.00249413 
r216 1062 122 0.0425532 
r217 103 90 0.00249413 
r218 1050 90 0.0425532 
r219 86 103 0.00249413 
r220 1050 86 0.0425532 
r221 77 64 0.00249413 
r222 1054 64 0.0425532 
r223 60 77 0.00249413 
r224 1054 60 0.0425532 
r225 51 38 0.00249413 
r226 1066 38 0.0425532 
r227 34 51 0.00249413 
r228 1066 34 0.0425532 
r229 25 12 0.00249413 
r230 1046 12 0.0425532 
r231 8 25 0.00249413 
r232 1046 8 0.0425532 
.ends

.subckt PM_PV0C%VDDO 656 661 664 668 671 676 680 684 689 705 710 715 742 749
c0 749 0 51.2854f
c1 739 0 1.23835f
c2 734 0 1.23395f
c3 729 0 1.24121f
c4 727 0 0.403448f
c5 725 0 1.11839f
c6 723 0 0.259447f
c7 722 0 1.29681f
c8 714 0 6.85736f
c9 705 0 54.1257f
c10 701 0 10.0936f
c11 695 0 16.8193f
c12 692 0 0.386194f
c13 689 0 72.9315f
c14 676 0 6.10137f
c15 668 0 2.62335f
c16 661 0 21.7635f
c17 617 0 0.384607f
c18 613 0 0.398008f
c19 607 0 0.400709f
c20 559 0 2.54797f
c21 558 0 9.7805f
c22 427 0 0.611421f
c23 415 0 0.640427f
c24 414 0 0.404239f
c25 406 0 0.247981f
c26 404 0 0.43151f
c27 402 0 0.429574f
c28 400 0 0.417865f
c29 17 0 0.123185f
c30 16 0 5.41365f
c31 7 0 0.12079f
c32 6 0 5.39041f
r33 748 749 0.00347712 
r34 747 748 0.47695 
r35 746 747 0.0601307 
r36 745 746 0.0210806 
r37 742 745 0.00480174 
r38 735 736 0.000285714 
r39 730 731 0.000571429 
r40 714 717 0.000218778 
r41 714 716 0.154512 
r42 714 715 0.02 
r43 710 712 0.1811 
r44 704 705 0.130751 
r45 703 717 0.02 
r46 703 704 0.0868882 
r47 700 701 0.665841 
r48 699 700 0.666549 
r49 698 699 0.673274 
r50 697 698 0.541593 
r51 716 695 0.563758 
r52 695 747 0.25 
r53 692 695 3.26443 
r54 684 687 0.0110207 
r55 680 682 0.1811 
r56 674 676 0.0542058 
r57 671 674 0.0536763 
r58 712 660 0.5 
r59 660 661 0.00284461 
r60 653 740 3 
r61 646 736 3 
r62 640 731 3 
r63 630 723 0.0186857 
r64 630 722 0.0482747 
r65 740 617 0.0223635 
r66 617 618 0.1692 
r67 739 616 0.1644 
r68 736 613 0.0237921 
r69 613 614 0.164 
r70 734 611 0.164 
r71 731 607 0.0237921 
r72 607 608 0.1616 
r73 729 605 0.1664 
r74 727 603 0.1632 
r75 725 600 0.1628 
r76 723 597 0.0936 
r77 594 730 0.0194286 
r78 594 729 0.0403635 
r79 594 725 0.0429349 
r80 594 740 0.016 
r81 594 739 0.0417921 
r82 594 735 0.018 
r83 594 734 0.0420778 
r84 594 605 0.16408 
r85 603 594 0.16392 
r86 594 616 0.16408 
r87 614 594 0.16392 
r88 594 600 0.164 
r89 594 611 0.164 
r90 608 594 0.164 
r91 618 594 0.164 
r92 594 597 0.164 
r93 722 594 0.0456 
r94 559 594 0.2472 
r95 558 594 0.2472 
r96 557 594 0.2488 
r97 556 594 0.2488 
r98 431 746 0.02 
r99 431 432 0.758885 
r100 427 710 0.1699 
r101 427 748 1.5 
r102 425 689 0.108412 
r103 687 425 0.0963319 
r104 425 674 0.00150602 
r105 432 424 0.510769 
r106 687 424 0.2 
r107 422 668 0.0653756 
r108 664 422 0.0655388 
r109 704 422 0.00181159 
r110 717 419 0.0276463 
r111 419 432 0.2 
r112 418 660 0.468512 
r113 656 418 0.00395612 
r114 682 418 0.5 
r115 415 680 0.1699 
r116 415 745 1.5 
r117 701 414 1.5 
r118 414 653 0.0365812 
r119 740 414 3 
r120 634 407 3 
r121 407 727 0.0272206 
r122 594 407 0.0154286 
r123 406 630 3 
r124 405 692 0.0210026 
r125 405 697 0.0248021 
r126 405 406 3 
r127 407 404 3 
r128 404 634 0.033834 
r129 698 404 1.5 
r130 730 402 3 
r131 402 640 0.0345161 
r132 699 402 1.5 
r133 735 400 3 
r134 400 646 0.0345161 
r135 700 400 1.5 
r136 559 17 0.0447844 
r137 17 594 1.4363 
r138 16 558 0.0447844 
r139 16 594 1.40926 
r140 557 7 0.0447844 
r141 7 594 1.4363 
r142 6 556 0.0447844 
r143 6 594 1.40926 
.ends

.subckt PM_PV0C%U34_U31_r2 401 403 405 407 409 411 413 415 417 419 421 424 478
c0 511 0 0.336905f
c1 510 0 0.321185f
c2 509 0 0.321268f
c3 508 0 0.321268f
c4 507 0 0.321268f
c5 506 0 0.321268f
c6 505 0 0.321268f
c7 504 0 0.321268f
c8 503 0 0.321268f
c9 502 0 0.321103f
c10 499 0 8.08248f
c11 495 0 0.337547f
c12 494 0 0.324417f
c13 493 0 0.324493f
c14 492 0 0.324493f
c15 491 0 0.324493f
c16 490 0 0.324493f
c17 489 0 0.324493f
c18 488 0 0.324493f
c19 487 0 0.324493f
c20 486 0 0.324318f
c21 483 0 8.5602f
c22 471 0 0.364588f
c23 469 0 1.34373f
c24 463 0 0.455686f
c25 461 0 1.4117f
c26 458 0 2.18148f
c27 455 0 0.239691f
c28 451 0 8.2033f
c29 400 0 3.51133f
c30 388 0 0.111075f
c31 300 0 0.341106f
c32 297 0 0.344032f
c33 267 0 3.28301f
c34 265 0 0.0762281f
c35 234 0 3.28508f
c36 232 0 0.0762281f
c37 215 0 3.28502f
c38 213 0 0.0762281f
c39 182 0 3.28502f
c40 180 0 0.0762281f
c41 163 0 3.28502f
c42 161 0 0.0762281f
c43 130 0 3.28502f
c44 128 0 0.0762281f
c45 111 0 3.28502f
c46 109 0 0.0762281f
c47 78 0 3.28502f
c48 76 0 0.0762281f
c49 59 0 3.2851f
c50 57 0 0.0762505f
c51 26 0 3.28477f
c52 24 0 0.0762281f
c53 7 0 3.50124f
c54 5 0 0.0999299f
r55 510 511 0.238049 
r56 509 510 0.470244 
r57 508 509 0.238049 
r58 507 508 0.470244 
r59 506 507 0.238049 
r60 505 506 0.470244 
r61 504 505 0.238049 
r62 503 504 0.470244 
r63 502 503 0.238049 
r64 501 502 0.387805 
r65 499 501 0.082439 
r66 495 496 0.209756 
r67 494 495 0.238049 
r68 493 494 0.470244 
r69 492 493 0.238049 
r70 491 492 0.470244 
r71 490 491 0.238049 
r72 489 490 0.470244 
r73 488 489 0.238049 
r74 487 488 0.470244 
r75 486 487 0.238049 
r76 485 486 0.396098 
r77 483 485 0.0741463 
r78 474 501 3 
r79 471 520 0.00105263 
r80 469 471 3 
r81 469 474 0.845455 
r82 466 485 3 
r83 463 516 0.00516129 
r84 461 463 3 
r85 461 466 0.841212 
r86 458 496 3 
r87 478 455 0.00494845 
r88 453 455 3 
r89 453 458 0.429926 
r90 452 516 0.02 
r91 451 520 0.02 
r92 451 452 4.55333 
r93 400 424 487.92 
r94 388 424 487.92 
r95 511 300 0.470244 
r96 496 297 0.260488 
r97 287 300 2.76471 
r98 400 287 5.28991 
r99 285 297 2.76471 
r100 388 285 5.28991 
r101 268 511 2.76471 
r102 267 421 487.92 
r103 267 268 5.28991 
r104 266 495 2.76471 
r105 265 421 487.92 
r106 265 266 5.28991 
r107 235 510 2.76471 
r108 234 419 487.92 
r109 234 235 5.28991 
r110 233 494 2.76471 
r111 232 419 487.92 
r112 232 233 5.28991 
r113 216 509 2.76471 
r114 215 417 487.92 
r115 215 216 5.28991 
r116 214 493 2.76471 
r117 213 417 487.92 
r118 213 214 5.28991 
r119 183 508 2.76471 
r120 182 415 487.92 
r121 182 183 5.28991 
r122 181 492 2.76471 
r123 180 415 487.92 
r124 180 181 5.28991 
r125 164 507 2.76471 
r126 163 413 487.92 
r127 163 164 5.28991 
r128 162 491 2.76471 
r129 161 413 487.92 
r130 161 162 5.28991 
r131 131 506 2.76471 
r132 130 411 487.92 
r133 130 131 5.28991 
r134 129 490 2.76471 
r135 128 411 487.92 
r136 128 129 5.28991 
r137 112 505 2.76471 
r138 111 409 487.92 
r139 111 112 5.28991 
r140 110 489 2.76471 
r141 109 409 487.92 
r142 109 110 5.28991 
r143 79 504 2.76471 
r144 78 407 487.92 
r145 78 79 5.28991 
r146 77 488 2.76471 
r147 76 407 487.92 
r148 76 77 5.28991 
r149 60 503 2.76471 
r150 59 405 487.92 
r151 59 60 5.28991 
r152 58 487 2.76471 
r153 57 405 487.92 
r154 57 58 5.28991 
r155 27 502 2.76471 
r156 26 403 487.92 
r157 26 27 5.28991 
r158 25 486 2.76471 
r159 24 403 487.92 
r160 24 25 5.28991 
r161 8 499 2.76471 
r162 7 401 487.92 
r163 7 8 5.28991 
r164 6 483 2.76471 
r165 5 401 487.92 
r166 5 6 5.28991 
.ends

.subckt PM_PV0C%noxref_7 8 15
c0 19 0 0.260138f
c1 14 0 0.580807f
c2 13 0 0.283904f
r3 14 19 0.02 
r4 13 15 0.0300645 
r5 13 14 0.232258 
r6 8 19 0.0116854 
.ends

.subckt PM_PV0C%VSS 1037 1040 1043 1046 1049 1052 1055 1081 1118 1124 1128 1150
+ 1167 1171 1178 1188
c0 1188 0 45.4208f
c1 1173 0 11.2447f
c2 1171 0 0.145467f
c3 1169 0 1.6638f
c4 1167 0 1.25253f
c5 1165 0 1.85711f
c6 1142 0 15.8033f
c7 1139 0 0.341231f
c8 1133 0 14.6104f
c9 1124 0 99.9533f
c10 1105 0 7.16417f
c11 1095 0 5.85258f
c12 1081 0 2.02527f
c13 1057 0 7.40486f
c14 1055 0 1.83594f
c15 1052 0 1.86788f
c16 1049 0 1.85978f
c17 1046 0 1.81242f
c18 1043 0 1.81242f
c19 1040 0 1.81242f
c20 1037 0 2.02172f
c21 1034 0 1.8583f
c22 1032 0 1.85711f
c23 1030 0 1.85711f
c24 1028 0 1.88879f
c25 1026 0 1.84975f
c26 1024 0 1.88359f
c27 1022 0 1.87606f
c28 1021 0 1.81286f
c29 1016 0 8.00225f
c30 861 0 0.327022f
c31 859 0 0.128318f
c32 857 0 0.173605f
c33 855 0 7.6092f
c34 854 0 0.252931f
c35 853 0 0.358026f
c36 852 0 0.252883f
c37 851 0 0.558954f
c38 844 0 0.558829f
c39 712 0 0.236614f
c40 711 0 4.78961f
c41 710 0 2.00373f
c42 688 0 0.0538339f
c43 687 0 0.106665f
c44 686 0 0.0538339f
c45 685 0 0.112079f
c46 657 0 5.32128f
c47 653 0 0.674325f
c48 651 0 0.838104f
c49 640 0 6.02161f
c50 610 0 7.48031f
c51 607 0 0.102637f
c52 606 0 0.562762f
c53 605 0 0.119767f
c54 604 0 0.847868f
c55 603 0 6.24446f
c56 199 0 1.28554f
c57 195 0 1.8815f
r58 1185 1186 0.027996 
r59 1184 1185 0.22333 
r60 1183 1184 0.0468195 
r61 1178 1181 0.00303091 
r62 1173 1176 0.114006 
r63 1169 1171 0.30408 
r64 1169 1185 0.04 
r65 1165 1167 0.25192 
r66 1165 1184 0.0413793 
r67 1158 1181 0.428571 
r68 1155 1158 0.109602 
r69 1150 1152 0.1891 
r70 1145 1146 1.43327 
r71 1142 1145 0.830891 
r72 1142 1186 0.3 
r73 1161 1139 2 
r74 1137 1139 2 
r75 1136 1137 1.40632 
r76 1133 1136 0.797321 
r77 1133 1183 0.3 
r78 1128 1130 0.1891 
r79 1122 1124 0.000506675 
r80 1121 1122 0.0834503 
r81 1118 1121 0.000704656 
r82 1161 1113 3.64488 
r83 1105 1106 0.089172 
r84 1104 1105 0.089172 
r85 1103 1104 0.089172 
r86 1102 1169 0.0488 
r87 1101 1103 0.089172 
r88 1101 1102 0.0204618 
r89 1100 1101 0.089172 
r90 1099 1100 0.089172 
r91 1098 1099 0.089172 
r92 1097 1098 0.089172 
r93 1094 1095 0.0551111 
r94 1093 1094 0.0497778 
r95 1092 1093 0.0497778 
r96 1091 1165 0.0544 
r97 1090 1092 0.0497778 
r98 1167 1090 0.0158222 
r99 1090 1091 0.02 
r100 1088 1167 0.0339556 
r101 1087 1088 0.0497778 
r102 1086 1087 0.0497778 
r103 1085 1086 0.0497778 
r104 1083 1085 0.0551111 
r105 1106 1081 0.35928 
r106 1105 1055 0.35928 
r107 1051 1104 0.0204618 
r108 1051 1052 0.35288 
r109 1048 1103 0.0204618 
r110 1048 1049 0.35288 
r111 1100 1046 0.35928 
r112 1099 1043 0.35928 
r113 1098 1040 0.35928 
r114 1097 1037 0.35928 
r115 1034 1094 0.02 
r116 1034 1167 0.30632 
r117 1032 1093 0.02 
r118 1032 1167 0.30632 
r119 1030 1092 0.02 
r120 1030 1167 0.30632 
r121 1028 1088 0.02 
r122 1028 1167 0.30632 
r123 1026 1087 0.02 
r124 1026 1167 0.30632 
r125 1024 1086 0.02 
r126 1024 1167 0.30632 
r127 1022 1085 0.02 
r128 1022 1167 0.30632 
r129 1021 1083 0.02 
r130 1020 1176 0.350948 
r131 1019 1173 0.02 
r132 1018 1079 0.349159 
r133 1017 1057 0.346916 
r134 1016 1113 0.546341 
r135 1015 1161 0.522927 
r136 1014 1155 0.02 
r137 1013 1158 0.355352 
r138 864 867 1.67111 
r139 861 1113 2 
r140 1146 861 2 
r141 867 859 3 
r142 1145 859 3 
r143 864 857 3 
r144 1136 857 3 
r145 855 867 0.461333 
r146 1020 854 0.0421014 
r147 853 864 0.465778 
r148 1013 852 0.0421014 
r149 851 855 0.0473684 
r150 854 851 0.1213 
r151 1057 847 0.159252 
r152 847 1079 0.159252 
r153 1019 847 2.941 
r154 1014 847 2.905 
r155 844 853 0.0473684 
r156 852 844 0.1213 
r157 721 1021 0.5605 
r158 711 721 0.0446983 
r159 711 712 1.21 
r160 710 1095 0.02 
r161 709 712 0.0446983 
r162 709 710 0.5605 
r163 1018 688 0.00319614 
r164 1017 687 0.00265108 
r165 1016 687 0.0420172 
r166 1015 685 0.0420172 
r167 847 684 0.106 
r168 657 847 0.106 
r169 656 684 0.347333 
r170 655 657 0.345333 
r171 654 688 0.0412274 
r172 653 656 0.0465329 
r173 653 654 0.578095 
r174 652 687 0.0420172 
r175 651 655 0.0467869 
r176 651 652 0.592195 
r177 641 686 0.0412274 
r178 641 847 0.253333 
r179 640 688 0.0412274 
r180 640 847 4.34857 
r181 847 637 0.161495 
r182 610 847 0.161495 
r183 609 686 0.00319614 
r184 609 637 0.346916 
r185 608 685 0.00265108 
r186 608 610 0.344673 
r187 606 686 0.0412274 
r188 606 607 0.578095 
r189 604 685 0.0420172 
r190 604 605 0.592195 
r191 603 607 0.0465329 
r192 602 605 0.0467869 
r193 602 603 3.32467 
r194 199 1150 0.0129 
r195 199 1122 0.131579 
r196 1176 198 0.428571 
r197 198 1188 0.00318245 
r198 1186 198 0.110867 
r199 1152 198 0.428571 
r200 195 1128 0.0249 
r201 195 1121 0.131579 
r202 194 1183 0.101926 
r203 1181 194 0.00128415 
r204 1130 194 0.428571 
.ends

.subckt PM_PV0C%VSSO 40 48 51 55 58 64 70 73 77 80
c0 78 0 1.29246f
c1 77 0 92.7774f
c2 71 0 1.10349f
c3 64 0 32.2007f
c4 55 0 25.4799f
c5 48 0 6.82208f
c6 47 0 20.8078f
c7 39 0 6.55157f
c8 9 0 7.06845f
c9 7 0 1.35485f
r10 78 80 0.4449 
r11 71 73 0.4449 
r12 67 70 0.0304129 
r13 62 64 0.00199444 
r14 61 62 0.35605 
r15 58 61 0.00306111 
r16 44 39 0.091824 
r17 47 39 1.3589 
r18 80 21 0.2101 
r19 21 62 0.357143 
r20 20 48 0.00383957 
r21 20 47 0.110113 
r22 78 20 1 
r23 16 55 0.0418839 
r24 51 16 0.0414748 
r25 14 16 0.00132837 
r26 67 14 0.0926561 
r27 12 77 0.0383414 
r28 12 14 0.098829 
r29 9 44 0.666667 
r30 7 9 2.0883 
r31 73 5 0.1981 
r32 5 61 0.357143 
r33 4 44 0.0147487 
r34 40 4 0.00589305 
r35 71 4 1 
r36 2 7 0.0661809 
r37 1 70 0.0768886 
r38 1 2 0.134899 
.ends

