* File: pc3b21eu.dist.sp.pex
* Created: Sun Jul  4 12:19:28 2010
* Program "Calibre xRC"
* Version "v2008.4_19.14"
* Nominal Temperature: 27C
* Circuit Temperature: 27C
* 
.subckt PM_PC3B21EU%PAD 21 50 79 108 137 166 218 242 266 290 320 326 389 428
+ 452 459
c0 467 0 27.3178f
c1 460 0 83.6497f
c2 459 0 64.3341f
c3 456 0 159.215f
c4 451 0 1.02644f
c5 444 0 9.96233f
c6 434 0 12.9725f
c7 425 0 0.117887f
c8 423 0 215.424f
c9 408 0 15.3329f
c10 397 0 46.9248f
c11 392 0 65.4578f
c12 390 0 15.9235f
c13 389 0 1.04909f
c14 388 0 3.84934f
c15 326 0 13.4856f
c16 320 0 13.495f
c17 290 0 13.4925f
c18 266 0 13.5042f
c19 242 0 13.7919f
c20 218 0 13.4912f
c21 176 0 7.52869f
c22 166 0 2.98552f
c23 149 0 6.78371f
c24 137 0 2.98555f
c25 120 0 6.78371f
c26 108 0 2.98447f
c27 91 0 6.78371f
c28 79 0 2.98447f
c29 62 0 6.78371f
c30 50 0 2.98447f
c31 33 0 6.78371f
c32 21 0 2.98434f
c33 4 0 6.78371f
r34 467 468 0.118407 
r35 466 467 0.118407 
r36 465 466 0.056883 
r37 464 465 0.061524 
r38 463 464 0.118407 
r39 462 463 0.0830354 
r40 461 462 0.0353716 
r41 459 460 0.0124825 
r42 457 459 0.000593149 
r43 456 457 0.0669731 
r44 451 452 0.00916 
r45 444 462 0.0545455 
r46 434 465 0.015 
r47 425 428 0.00916 
r48 425 451 2 
r49 423 434 0.0264274 
r50 421 423 0.147454 
r51 421 422 0.0288462 
r52 415 416 0.00752787 
r53 414 415 0.021023 
r54 412 414 0.000537705 
r55 412 456 0.00162999 
r56 410 412 0.000537705 
r57 408 410 0.0285508 
r58 399 451 0.1388 
r59 398 399 0.132996 
r60 397 398 0.0171733 
r61 394 395 0.0171733 
r62 393 394 0.0171733 
r63 392 393 0.0171733 
r64 391 397 0.0142401 
r65 391 395 0.00293318 
r66 390 422 0.00646891 
r67 390 392 0.00818451 
r68 388 444 0.202116 
r69 388 389 0.0147368 
r70 315 320 0.0072093 
r71 392 315 0.0566038 
r72 313 326 0.0072093 
r73 398 313 0.0566038 
r74 286 290 0.0072093 
r75 397 286 0.0566038 
r76 262 266 0.0072093 
r77 395 262 0.0566038 
r78 238 242 0.0072093 
r79 394 238 0.0566038 
r80 214 218 0.0072093 
r81 393 214 0.0566038 
r82 194 197 0.0022831 
r83 416 194 0.0375475 
r84 194 457 0.00547945 
r85 414 193 0.00210084 
r86 191 193 0.000537705 
r87 410 191 0.00210084 
r88 193 182 0.0105115 
r89 415 182 0.00712251 
r90 178 197 0.0187738 
r91 182 178 0.00376393 
r92 416 178 0.00712251 
r93 176 191 0.0142754 
r94 408 176 0.00356125 
r95 460 173 0.345778 
r96 172 468 0.0220132 
r97 172 173 0.319822 
r98 166 153 0.00249413 
r99 173 153 0.0425532 
r100 149 166 0.00249413 
r101 173 149 0.0425532 
r102 460 144 0.345778 
r103 143 467 0.0220132 
r104 143 144 0.319822 
r105 137 124 0.00249413 
r106 144 124 0.0425532 
r107 120 137 0.00249413 
r108 144 120 0.0425532 
r109 460 115 0.345778 
r110 114 466 0.0220132 
r111 114 115 0.319822 
r112 108 95 0.00249413 
r113 115 95 0.0425532 
r114 91 108 0.00249413 
r115 115 91 0.0425532 
r116 460 86 0.345778 
r117 85 464 0.0220132 
r118 85 86 0.319822 
r119 79 66 0.00249413 
r120 86 66 0.0425532 
r121 62 79 0.00249413 
r122 86 62 0.0425532 
r123 460 57 0.345778 
r124 56 463 0.0220132 
r125 56 57 0.319822 
r126 50 37 0.00249413 
r127 57 37 0.0425532 
r128 33 50 0.00249413 
r129 57 33 0.0425532 
r130 460 28 0.345778 
r131 27 461 0.0220132 
r132 27 28 0.319822 
r133 21 8 0.00249413 
r134 28 8 0.0425532 
r135 4 21 0.00249413 
r136 28 4 0.0425532 
.ends

.subckt PM_PC3B21EU%noxref_2 8 18
c0 20 0 4.83425f
c1 18 0 0.993329f
c2 8 0 6.70905f
r3 18 20 0.158105 
r4 20 8 0.158526 
.ends

.subckt PM_PC3B21EU%net_m26_VSSO_res 25 97 101 105 109 113
c0 113 0 0.519409f
c1 109 0 0.519409f
c2 105 0 0.519409f
c3 101 0 0.733303f
c4 97 0 0.73297f
c5 93 0 0.865155f
c6 87 0 0.0518462f
c7 53 0 0.0631005f
c8 43 0 0.242979f
c9 42 0 0.19588f
c10 41 0 0.135544f
c11 40 0 0.102874f
c12 39 0 0.162435f
c13 25 0 0.3761f
c14 24 0 0.190583f
c15 23 0 0.0478193f
c16 22 0 0.372825f
r17 88 93 0.0552941 
r18 87 88 0.02 
r19 86 87 0.124706 
r20 54 97 85 
r21 52 113 85 
r22 52 53 0.93595 
r23 51 109 85 
r24 50 51 1.5553 
r25 49 93 2.20253 
r26 48 50 6.2212 
r27 48 49 1.5553 
r28 47 105 85 
r29 46 48 10.0922 
r30 46 47 1.5553 
r31 45 101 85 
r32 44 53 2.23066 
r33 43 54 3.37824 
r34 43 44 10.8571 
r35 42 50 4.70046 
r36 41 53 2.23066 
r37 41 42 9 
r38 40 45 3.37824 
r39 39 46 2.90323 
r40 39 40 10.8571 
r41 24 25 0.18 
r42 86 23 0.0446983 
r43 22 24 0.0446983 
r44 22 23 0.521176 
.ends

.subckt PM_PC3B21EU%U27_padr 46 54 139 141 143 145 150 197 199
c0 289 0 9.31413f
c1 287 0 0.395243f
c2 285 0 0.321019f
c3 283 0 15.9869f
c4 273 0 15.9848f
c5 257 0 0.145032f
c6 256 0 0.0372673f
c7 255 0 0.0478417f
c8 254 0 0.0873247f
c9 251 0 7.05568f
c10 248 0 0.602534f
c11 246 0 5.63559f
c12 244 0 0.516722f
c13 242 0 0.0693973f
c14 241 0 0.17633f
c15 240 0 0.352674f
c16 228 0 1.17107f
c17 223 0 1.73122f
c18 217 0 2.39667f
c19 206 0 2.37602f
c20 199 0 1.07645f
c21 198 0 0.703354f
c22 197 0 0.591893f
c23 166 0 0.319458f
c24 159 0 0.0977818f
c25 150 0 1.42755f
c26 145 0 0.895914f
c27 143 0 0.801699f
c28 141 0 0.57787f
c29 139 0 0.77078f
c30 99 0 0.227075f
c31 93 0 0.291597f
c32 90 0 0.755109f
c33 87 0 1.43598f
c34 79 0 0.506245f
c35 76 0 0.0899759f
c36 72 0 0.0321151f
c37 70 0 0.0745164f
c38 64 0 1.8597f
c39 60 0 0.31088f
c40 58 0 0.0522342f
c41 57 0 0.105276f
c42 54 0 1.36434f
c43 51 0 0.0511317f
c44 50 0 0.366281f
c45 46 0 1.95835f
r46 285 295 0.17 
r47 283 285 6 
r48 280 281 0.809333 
r49 279 280 0.216 
r50 277 279 0.768 
r51 295 275 0.172857 
r52 273 275 6 
r53 270 271 0.806667 
r54 269 270 0.218667 
r55 267 269 0.765333 
r56 257 259 3 
r57 256 257 0.109474 
r58 256 254 0.0456991 
r59 254 255 0.147143 
r60 251 295 2 
r61 249 255 0.0446983 
r62 249 251 10.3129 
r63 248 259 0.30381 
r64 289 246 0.185079 
r65 244 246 1.2 
r66 243 244 0.482857 
r67 241 243 0.0446983 
r68 241 242 0.125714 
r69 240 242 0.0446983 
r70 239 248 0.0446983 
r71 239 240 0.407619 
r72 236 287 6 
r73 234 273 3.06533 
r74 271 234 7.33867 
r75 232 234 6 
r76 232 236 1.15117 
r77 230 283 3.06267 
r78 281 230 7.34133 
r79 228 230 6 
r80 228 232 0.249351 
r81 203 287 0.44987 
r82 198 289 0.18836 
r83 198 199 0.0147368 
r84 197 203 0.1041 
r85 135 145 80.8333 
r86 135 166 3.42502 
r87 123 143 93.5 
r88 118 141 51.6667 
r89 117 118 1.66667 
r90 110 139 93.5 
r91 159 110 3.56788 
r92 166 105 0.2 
r93 223 105 6 
r94 223 102 2.48 
r95 102 281 6 
r96 102 100 0.329655 
r97 100 271 6 
r98 217 99 6 
r99 217 96 2.09625 
r100 96 280 6 
r101 94 221 1.25375 
r102 96 94 0.3 
r103 94 270 6 
r104 221 93 6 
r105 90 279 6 
r106 88 215 1.2525 
r107 90 88 0.3 
r108 88 269 6 
r109 87 159 2.98338 
r110 215 87 6 
r111 206 84 1.702 
r112 84 277 6 
r113 150 83 1.5325 
r114 206 83 6 
r115 80 210 1.002 
r116 84 80 0.24 
r117 80 267 6 
r118 210 79 6 
r119 74 93 0.53 
r120 73 76 0.0971429 
r121 73 74 0.02 
r122 71 99 0.22625 
r123 71 72 0.0338756 
r124 68 70 0.12 
r125 68 79 0.8825 
r126 67 150 1.3775 
r127 123 64 3.85359 
r128 63 76 0.02 
r129 63 64 2.485 
r130 60 117 1.16667 
r131 59 72 0.0338756 
r132 59 60 0.245 
r133 57 72 0.00880368 
r134 57 58 0.25 
r135 53 58 0.0446983 
r136 53 54 1.2575 
r137 52 54 1.3775 
r138 51 67 0.0447588 
r139 50 52 0.0447588 
r140 50 51 0.544 
r141 70 46 2.375 
.ends

.subckt PM_PC3B21EU%U32_U1_OUTSHIFT 9 39 75 91
c0 99 0 0.614449f
c1 91 0 0.0863292f
c2 87 0 0.0954552f
c3 86 0 0.498552f
c4 75 0 0.639298f
c5 74 0 0.161375f
c6 71 0 0.471673f
c7 69 0 0.048734f
c8 68 0 0.370375f
c9 64 0 14.5079f
c10 62 0 0.510109f
c11 59 0 1.78317f
c12 57 0 0.0515752f
c13 56 0 0.160245f
c14 50 0 0.748158f
c15 42 0 0.373738f
c16 38 0 0.0396705f
c17 37 0 0.778545f
c18 36 0 0.122203f
c19 9 0 1.96448f
c20 4 0 0.590468f
r21 86 91 52.3333 
r22 86 87 2.1393 
r23 74 75 3.93 
r24 71 99 6 
r25 69 71 0.587097 
r26 66 68 6 
r27 93 64 3.196 
r28 62 64 6 
r29 62 66 0.596129 
r30 61 69 0.0446983 
r31 61 66 0.0696774 
r32 58 59 2.3625 
r33 56 58 0.0449572 
r34 56 57 0.145714 
r35 53 57 0.0446983 
r36 52 99 0.912857 
r37 51 68 0.433548 
r38 74 46 0.77573 
r39 42 52 0.0446983 
r40 42 87 0.425714 
r41 38 50 0.0492771 
r42 38 39 0.458723 
r43 37 51 0.0471889 
r44 37 39 0.378723 
r45 46 36 0.071405 
r46 50 36 1.40258 
r47 9 7 1.525 
r48 59 7 6 
r49 53 4 0.985714 
r50 4 93 6 
.ends

.subckt PM_PC3B21EU%VDDO 757 762 769 776 783 790 797 804 913 922 924 930 948
+ 953 961 965 1030 1036 1265 1273 1326 1330 1333 1338 1345 1352 1373 1401 1412
+ 1420 1428 1434 1440 1450 1456 1462 1508 1524 1553 1558
c0 1558 0 21.2763f
c1 1550 0 4.33735f
c2 1541 0 7.42905f
c3 1532 0 8.84455f
c4 1527 0 5.96165f
c5 1524 0 53.0376f
c6 1505 0 2.61222f
c7 1502 0 3.22381f
c8 1462 0 1.39365f
c9 1456 0 2.72268f
c10 1450 0 1.37524f
c11 1447 0 3.09051f
c12 1440 0 1.08235f
c13 1434 0 2.06595f
c14 1428 0 2.47772f
c15 1425 0 4.547f
c16 1409 0 0.505499f
c17 1405 0 32.175f
c18 1404 0 1.96564f
c19 1401 0 65.7907f
c20 1400 0 1.51937f
c21 1351 0 53.3979f
c22 1341 0 0.706586f
c23 1340 0 1.51121f
c24 1338 0 3.02638f
c25 1330 0 2.52127f
c26 1318 0 0.130336f
c27 1311 0 0.105637f
c28 1297 0 0.0748413f
c29 1295 0 0.382077f
c30 1290 0 3.34076f
c31 1285 0 1.42618f
c32 1280 0 2.55736f
c33 1271 0 0.625218f
c34 1270 0 0.0863102f
c35 1269 0 2.35099f
c36 1265 0 1.00745f
c37 1263 0 0.105865f
c38 1227 0 9.87844f
c39 1226 0 9.76182f
c40 1049 0 1.76996f
c41 1038 0 2.35537f
c42 1036 0 0.0818454f
c43 1030 0 0.383066f
c44 1016 0 0.160097f
c45 1014 0 0.290543f
c46 1010 0 0.705227f
c47 1007 0 2.88936f
c48 1003 0 0.198757f
c49 1000 0 0.452073f
c50 999 0 0.117062f
c51 997 0 0.24309f
c52 993 0 0.14475f
c53 991 0 8.61987f
c54 990 0 3.92056f
c55 988 0 0.0491072f
c56 985 0 0.0277236f
c57 984 0 6.86425f
c58 981 0 0.172601f
c59 971 0 0.0967898f
c60 965 0 1.44597f
c61 960 0 0.0292474f
c62 959 0 2.64611f
c63 957 0 0.723023f
c64 953 0 1.34493f
c65 948 0 9.298e-20
c66 947 0 1.59862f
c67 940 0 2.76838f
c68 938 0 0.0773839f
c69 937 0 0.1931f
c70 936 0 0.068947f
c71 935 0 0.187986f
c72 930 0 0.258171f
c73 924 0 0.333764f
c74 922 0 0.669451f
c75 920 0 0.0310758f
c76 919 0 0.268232f
c77 913 0 1.07464f
c78 809 0 7.39222f
c79 797 0 0.0234212f
c80 790 0 0.0106158f
c81 783 0 0.0106158f
c82 776 0 0.0106158f
c83 769 0 0.0106158f
c84 762 0 0.00937345f
c85 757 0 7.63825f
c86 729 0 12.162f
c87 727 0 19.9056f
c88 725 0 19.9052f
c89 723 0 19.9308f
c90 721 0 19.9056f
c91 719 0 19.7098f
c92 717 0 11.9311f
c93 691 0 0.115005f
c94 690 0 7.39367f
c95 687 0 0.104412f
c96 686 0 6.344f
c97 17 0 0.152029f
c98 16 0 6.73982f
c99 7 0 0.152029f
c100 6 0 6.75738f
r101 1553 1556 0.00394881 
r102 1550 1551 0.956244 
r103 1543 1544 0.279231 
r104 1541 1543 0.266538 
r105 1534 1535 0.273962 
r106 1532 1534 0.261509 
r107 1528 1529 1.79477 
r108 1527 1528 0.000373832 
r109 1521 1522 0.00997821 
r110 1520 1521 0.308845 
r111 1519 1520 0.0205664 
r112 1518 1519 0.0301089 
r113 1517 1518 0.0151634 
r114 1516 1517 0.0455338 
r115 1515 1516 0.00880174 
r116 1514 1515 0.0735076 
r117 1513 1514 0.0260566 
r118 1507 1524 0.00304139 
r119 1522 1507 0.00174292 
r120 1505 1507 0.461538 
r121 1502 1521 0.6 
r122 1465 1520 0.6 
r123 1462 1465 0.4475 
r124 1459 1519 0.6 
r125 1456 1459 1.6625 
r126 1453 1518 0.666667 
r127 1450 1453 0.365 
r128 1447 1517 0.666667 
r129 1443 1516 0.545455 
r130 1440 1443 0.4025 
r131 1437 1515 0.545455 
r132 1434 1437 1.63 
r133 1431 1514 0.5 
r134 1428 1431 1.455 
r135 1508 1427 0.00305011 
r136 1425 1427 0.461538 
r137 1420 1550 0.2 
r138 1416 1558 0.0039415 
r139 1556 1416 0.467422 
r140 1414 1416 0.5 
r141 1412 1414 0.181 
r142 1409 1412 0.17 
r143 1409 1522 1.5 
r144 1406 1407 0.5457 
r145 1405 1406 0.2439 
r146 1404 1420 0.0539366 
r147 1404 1407 0.0966 
r148 1551 1400 0.698216 
r149 1398 1400 0.2 
r150 1398 1401 0.0136564 
r151 1544 1397 0.279231 
r152 1397 1395 0.279231 
r153 1395 1393 0.279231 
r154 1393 1391 0.266538 
r155 1389 1391 1.5 
r156 1389 1393 1.5 
r157 1389 1395 1.5 
r158 1389 1397 1.5 
r159 1389 1398 0.0314855 
r160 1535 1387 0.273962 
r161 1387 1385 0.273962 
r162 1385 1383 0.273962 
r163 1383 1381 0.261509 
r164 1379 1381 1.5 
r165 1379 1383 1.5 
r166 1379 1385 1.5 
r167 1379 1387 1.5 
r168 1529 1378 0.000747664 
r169 1376 1378 0.2 
r170 1376 1379 0.0334274 
r171 1373 1376 0.01361 
r172 1367 1543 1.5 
r173 1367 1541 1.5 
r174 1367 1544 1.5 
r175 1365 1367 0.0694058 
r176 1359 1534 1.5 
r177 1359 1532 1.5 
r178 1359 1365 0.0805639 
r179 1359 1535 1.5 
r180 1355 1527 0.2 
r181 1355 1359 0.0404834 
r182 1352 1355 0.0165962 
r183 1351 1420 0.0234268 
r184 1351 1367 0.0330312 
r185 1348 1556 0.5 
r186 1345 1348 0.181 
r187 1343 1513 0.0183007 
r188 1427 1343 0.00174292 
r189 1341 1343 1.5 
r190 1341 1345 0.17 
r191 1340 1405 0.5048 
r192 1336 1338 0.0526456 
r193 1333 1336 0.0552365 
r194 1316 1318 0.12 
r195 1498 1309 0.1864 
r196 1294 1297 0.0446983 
r197 1294 1295 0.492857 
r198 1287 1318 0.02 
r199 1284 1316 0.02 
r200 1284 1285 2.92286 
r201 1277 1502 4.21288 
r202 1271 1273 0.0108889 
r203 1269 1277 0.0456264 
r204 1269 1270 2.11789 
r205 1264 1271 0.02 
r206 1264 1265 1.1725 
r207 1263 1270 0.0446983 
r208 1273 1262 0.104301 
r209 1262 1263 0.177895 
r210 1227 1309 0.0784 
r211 1226 1498 0.2648 
r212 1225 1447 1.8775 
r213 1224 1498 0.2664 
r214 1223 1498 0.2664 
r215 1046 1311 6 
r216 1043 1057 1.5 
r217 1035 1036 2.103 
r218 1034 1035 0.541 
r219 1016 1309 3 
r220 1340 1015 0.0517792 
r221 1015 1016 3 
r222 1014 1057 0.000130933 
r223 1407 1014 1.5 
r224 1311 1012 0.000842105 
r225 1406 1012 6 
r226 1297 1010 1.54429 
r227 1405 1010 6 
r228 1295 1007 6 
r229 1290 1004 4.35429 
r230 1004 1038 6 
r231 1051 1003 0.06 
r232 1290 1003 6 
r233 1287 1000 0.787143 
r234 1000 1035 6 
r235 999 1049 0.0561431 
r236 1285 999 6 
r237 1280 997 6 
r238 1280 994 3.395 
r239 994 1034 6 
r240 1030 993 0.0621053 
r241 1513 993 2 
r242 991 1043 0.175309 
r243 990 1046 0.077 
r244 989 1007 3.91571 
r245 987 1046 2.062 
r246 987 988 0.0149881 
r247 984 1036 0.5315 
r248 984 985 0.0134463 
r249 983 1038 2.82 
r250 979 997 0.175 
r251 978 981 0.1525 
r252 978 979 0.02 
r253 971 1034 0.568 
r254 970 1505 0.526 
r255 970 991 0.0447005 
r256 969 1505 2.122 
r257 969 990 0.0446983 
r258 964 988 0.0313149 
r259 964 965 1.51 
r260 960 961 0.654286 
r261 959 989 0.0446983 
r262 959 961 4.21857 
r263 958 985 0.0134463 
r264 957 988 0.0149881 
r265 957 958 0.397 
r266 952 985 0.0342301 
r267 952 953 1.66456 
r268 947 960 0.0456991 
r269 947 948 1.94 
r270 940 1051 0.02 
r271 939 940 3.66429 
r272 1225 938 0.0446983 
r273 937 983 0.0446983 
r274 937 938 0.1975 
r275 935 939 0.0446983 
r276 935 936 0.232857 
r277 929 936 0.0449572 
r278 929 930 0.20375 
r279 922 924 0.81913 
r280 921 924 0.309565 
r281 919 921 0.0446983 
r282 919 920 0.577391 
r283 917 920 0.0447246 
r284 917 1049 4.4 
r285 912 981 0.02 
r286 912 913 1.3925 
r287 908 1425 2.122 
r288 908 971 0.0446983 
r289 809 757 0.159252 
r290 820 757 0.159252 
r291 757 827 0.159252 
r292 731 820 0.0829907 
r293 757 731 0.0291589 
r294 1551 731 0.1 
r295 762 729 0.793846 
r296 1541 729 1.5 
r297 769 727 0.55145 
r298 1543 727 1.5 
r299 776 725 0.55145 
r300 1544 725 1.5 
r301 783 723 0.55145 
r302 1397 723 1.5 
r303 790 721 0.55145 
r304 1395 721 1.5 
r305 797 719 0.55145 
r306 1393 719 1.5 
r307 804 717 0.793846 
r308 1391 717 1.5 
r309 715 762 0.842637 
r310 1532 715 1.5 
r311 713 769 0.585344 
r312 1534 713 1.5 
r313 711 776 0.585344 
r314 1535 711 1.5 
r315 709 783 0.585344 
r316 1387 709 1.5 
r317 707 790 0.585344 
r318 1385 707 1.5 
r319 705 797 0.585344 
r320 1383 705 1.5 
r321 703 804 0.842637 
r322 1381 703 1.5 
r323 757 701 0.0391734 
r324 1529 701 0.2 
r325 699 757 0.0397569 
r326 1528 699 0.2 
r327 697 827 0.73271 
r328 696 809 0.737944 
r329 695 757 0.73271 
r330 694 757 0.737944 
r331 691 695 0.0451326 
r332 691 757 2.504 
r333 690 697 0.0451326 
r334 690 757 2.44889 
r335 687 694 0.045921 
r336 687 757 2.687 
r337 686 696 0.045921 
r338 686 757 2.885 
r339 323 1389 0.0601494 
r340 1379 323 0.0634357 
r341 323 1336 0.00227273 
r342 322 1330 0.0620926 
r343 1326 322 0.0688218 
r344 1365 322 0.0025 
r345 1227 17 0.0447329 
r346 17 1498 1.51848 
r347 16 1226 0.0447329 
r348 16 1498 1.51162 
r349 1224 7 0.0447329 
r350 7 1498 1.51848 
r351 6 1223 0.0447329 
r352 6 1498 1.51162 
.ends

.subckt PM_PC3B21EU%U32_U1_U6_drain 5 30 70
c0 70 0 0.093269f
c1 66 0 0.48528f
c2 60 0 0.145436f
c3 52 0 16.0939f
c4 50 0 0.652415f
c5 45 0 2.03997f
c6 43 0 0.709802f
c7 40 0 0.375581f
c8 37 0 0.53096f
c9 36 0 0.134526f
c10 31 0 1.28349f
c11 30 0 4.09112e-19
c12 13 0 0.421499f
c13 12 0 0.611791f
c14 9 0 0.0269819f
c15 5 0 1.54089f
r16 66 70 52.3333 
r17 58 60 0.128571 
r18 55 56 6 
r19 73 52 2.89333 
r20 50 52 6 
r21 50 55 0.848 
r22 47 60 0.02 
r23 44 58 0.02 
r24 44 45 2.70571 
r25 42 43 1.24286 
r26 41 56 0.0221368 
r27 40 42 0.0448488 
r28 40 41 0.529032 
r29 66 37 2.1393 
r30 36 56 0.0225652 
r31 36 37 0.695873 
r32 31 43 0.0449572 
r33 31 30 1.34625 
r34 47 13 0.645714 
r35 13 73 6 
r36 45 12 6 
r37 9 12 0.611429 
r38 4 9 0.0414583 
r39 4 5 1.1 
.ends

.subckt PM_PC3B21EU%VSS 826 849 865 871 883 889 894 906 909 915
c0 915 0 89.9608f
c1 906 0 53.4458f
c2 892 0 2.37405f
c3 889 0 0.00382406f
c4 886 0 1.19966f
c5 883 0 0.00233123f
c6 880 0 0.833451f
c7 868 0 0.736329f
c8 865 0 3.60381f
c9 863 0 33.7843f
c10 846 0 1.88699f
c11 838 0 17.2514f
c12 823 0 1.45504f
c13 807 0 0.197956f
c14 803 0 25.1348f
c15 790 0 0.175503f
c16 789 0 10.4807f
c17 788 0 0.0657505f
c18 787 0 5.83727f
c19 786 0 0.525461f
c20 785 0 0.849041f
c21 784 0 0.0372194f
c22 775 0 0.252265f
c23 774 0 0.575193f
c24 766 0 8.69446f
c25 764 0 0.253687f
c26 762 0 1.91148f
c27 641 0 2.46178f
c28 636 0 2.62761f
c29 623 0 1.8909f
c30 621 0 0.391034f
c31 619 0 0.304123f
c32 616 0 25.3067f
c33 608 0 1.12187f
c34 605 0 0.0958381f
c35 602 0 3.56363f
c36 596 0 0.137389f
c37 595 0 2.56972f
c38 592 0 0.153967f
c39 591 0 3.19333f
c40 588 0 6.34069f
c41 538 0 0.162892f
c42 536 0 0.721903f
c43 534 0 0.201212f
c44 509 0 2.94262f
c45 495 0 3.0577f
c46 493 0 0.031054f
c47 490 0 7.71652f
c48 489 0 0.207813f
c49 474 0 5.73398f
c50 471 0 3.29261f
r51 913 915 0.000702051 
r52 912 913 0.0832563 
r53 909 912 0.000703354 
r54 905 906 0.00318245 
r55 902 903 0.0143968 
r56 901 902 0.0205783 
r57 900 901 0.176949 
r58 899 900 0.0937188 
r59 898 899 0.0422732 
r60 892 905 0.461538 
r61 886 889 1.28857 
r62 886 903 1.5 
r63 880 883 0.61 
r64 880 902 3 
r65 874 900 0.0517241 
r66 868 871 0.0308772 
r67 868 899 1 
r68 865 878 2.59036 
r69 853 905 0.00119641 
r70 903 853 0.0752941 
r71 851 853 0.428571 
r72 849 851 0.189 
r73 846 849 0.013 
r74 846 913 0.131579 
r75 842 843 0.56934 
r76 841 842 1.12447 
r77 838 841 0.628223 
r78 838 901 0.3 
r79 834 835 0.8252 
r80 830 898 0.0864606 
r81 894 830 0.00438684 
r82 828 830 0.428571 
r83 826 828 0.189 
r84 823 826 0.013 
r85 823 912 0.131579 
r86 789 790 0.0338756 
r87 787 874 2.9955 
r88 787 788 0.0338756 
r89 784 874 2.771 
r90 783 790 0.0338756 
r91 782 788 0.0338756 
r92 779 790 0.00880368 
r93 779 865 0.958 
r94 778 788 0.00880368 
r95 778 865 0.986 
r96 775 785 0.061325 
r97 774 786 0.061325 
r98 772 784 0.0448201 
r99 770 892 1.518 
r100 769 892 0.426 
r101 766 878 1.08482 
r102 762 772 2.13041 
r103 636 809 3 
r104 632 865 1.7305 
r105 863 632 0.685 
r106 632 807 3 
r107 789 630 0.7105 
r108 865 630 1.9525 
r109 630 818 3 
r110 628 865 1.07807 
r111 764 628 1.06072 
r112 628 641 1 
r113 809 623 0.24 
r114 842 623 1.5 
r115 818 621 0.000888889 
r116 841 621 3 
r117 619 878 3 
r118 843 619 3 
r119 616 834 0.3066 
r120 616 898 0.1 
r121 615 807 0.0005 
r122 834 615 3 
r123 613 641 0.0075 
r124 638 613 0.056 
r125 835 613 0.24 
r126 774 611 0.0377176 
r127 775 611 0.0683804 
r128 803 611 1 
r129 609 803 0.9618 
r130 609 638 0.02 
r131 608 783 0.5005 
r132 770 608 0.0446983 
r133 607 636 0.830244 
r134 606 636 0.76878 
r135 605 863 0.688 
r136 762 605 0.0448201 
r137 601 602 1.56095 
r138 596 607 0.0448242 
r139 595 602 0.0447675 
r140 595 596 1.32889 
r141 592 606 0.0446983 
r142 592 593 0.745366 
r143 591 601 0.0447067 
r144 591 593 0.713171 
r145 588 782 0.5005 
r146 588 769 0.0446983 
r147 537 538 0.147619 
r148 533 534 0.14988 
r149 766 533 0.0380723 
r150 530 532 0.143333 
r151 764 529 0.0385542 
r152 527 529 0.14506 
r153 865 526 0.159 
r154 509 865 0.159 
r155 508 538 0.02 
r156 508 526 1.247 
r157 507 534 0.02 
r158 507 509 1.243 
r159 865 506 0.192 
r160 504 865 0.192 
r161 503 504 0.342 
r162 865 503 0.192 
r163 501 865 0.192 
r164 500 501 0.342 
r165 865 500 0.192 
r166 498 865 0.192 
r167 497 498 0.342 
r168 865 497 0.192 
r169 495 865 0.192 
r170 494 537 0.02 
r171 494 506 1.214 
r172 493 536 0.04 
r173 493 495 0.243 
r174 491 533 0.02 
r175 491 536 0.938734 
r176 490 786 4.80524 
r177 490 537 0.0380952 
r178 489 785 0.555238 
r179 489 532 0.0380952 
r180 865 485 0.159 
r181 483 865 0.159 
r182 482 483 0.408 
r183 865 482 0.159 
r184 480 865 0.159 
r185 479 480 0.408 
r186 865 479 0.159 
r187 477 865 0.159 
r188 476 477 0.408 
r189 865 476 0.159 
r190 474 865 0.159 
r191 473 532 0.02 
r192 473 485 1.247 
r193 472 529 0.02 
r194 472 474 1.243 
r195 471 530 0.02 
r196 470 527 0.02 
r197 470 471 4.69271 
.ends

.subckt PM_PC3B21EU%U27_U69$9_gate 245 250 255 260 265 270 275 280 285 290 310
c0 469 0 0.25279f
c1 465 0 0.130723f
c2 463 0 0.477538f
c3 458 0 0.477654f
c4 453 0 0.468244f
c5 448 0 0.467924f
c6 439 0 2.82759f
c7 422 0 0.435255f
c8 412 0 0.607956f
c9 411 0 0.575672f
c10 406 0 0.562906f
c11 401 0 0.561733f
c12 396 0 0.306614f
c13 394 0 0.373276f
c14 392 0 0.0794715f
c15 391 0 0.300614f
c16 388 0 6.54296f
c17 384 0 1.15055f
c18 382 0 1.16127f
c19 380 0 1.17123f
c20 379 0 0.150657f
c21 378 0 1.15596f
c22 377 0 0.161658f
c23 376 0 8.9409f
c24 375 0 0.270453f
c25 373 0 0.582231f
c26 369 0 0.139576f
c27 363 0 0.0902914f
c28 355 0 0.171215f
c29 349 0 0.678581f
c30 341 0 0.535708f
c31 333 0 0.535759f
c32 325 0 0.536139f
c33 317 0 0.536115f
c34 311 0 0.295072f
c35 310 0 0.278026f
c36 301 0 0.163718f
c37 300 0 0.608932f
c38 299 0 0.169204f
c39 298 0 0.606449f
c40 297 0 0.169837f
c41 296 0 0.609175f
c42 295 0 0.169969f
c43 294 0 0.609529f
c44 293 0 0.169665f
c45 292 0 0.538266f
c46 290 0 3.10097f
c47 285 0 3.04886f
c48 280 0 3.04886f
c49 275 0 3.04886f
c50 270 0 3.04886f
c51 265 0 3.04886f
c52 260 0 3.04886f
c53 255 0 3.04886f
c54 250 0 3.04886f
c55 245 0 3.10222f
r56 421 469 0.00341463 
r57 419 421 3 
r58 419 422 0.017 
r59 417 419 0.0265 
r60 414 463 0.00195122 
r61 460 414 0.0536585 
r62 412 414 1.5 
r63 409 458 0.000487805 
r64 455 409 0.055122 
r65 407 409 1.5 
r66 407 411 0.0902049 
r67 404 453 0.00292683 
r68 450 404 0.0526829 
r69 402 404 1.5 
r70 402 406 0.0895065 
r71 399 448 0.00536585 
r72 445 399 0.0502439 
r73 397 399 1.5 
r74 397 401 0.0890172 
r75 395 422 0.02 
r76 395 396 0.662857 
r77 394 417 0.02 
r78 393 394 0.105038 
r79 391 396 0.0446983 
r80 391 392 0.352857 
r81 388 465 6 
r82 386 392 0.0448488 
r83 386 388 6.78194 
r84 412 384 0.11818 
r85 384 411 1.467 
r86 407 382 0.117444 
r87 382 406 1.481 
r88 402 380 0.114461 
r89 380 401 1.495 
r90 397 378 0.114705 
r91 378 379 1.473 
r92 376 393 0.0636039 
r93 376 377 10.871 
r94 441 375 0.0521951 
r95 373 375 3 
r96 372 379 0.062121 
r97 372 373 0.0536546 
r98 371 377 0.062121 
r99 371 373 0.136867 
r100 367 465 0.130323 
r101 366 369 0.153548 
r102 366 367 0.02 
r103 363 439 6 
r104 361 369 0.02 
r105 361 363 0.132903 
r106 360 439 3.99613 
r107 359 360 0.026898 
r108 355 359 0.10143 
r109 355 310 0.106667 
r110 301 349 1.85294 
r111 300 341 5.05882 
r112 299 341 5.05882 
r113 298 333 5.05882 
r114 297 333 5.05882 
r115 296 325 5.05882 
r116 295 325 5.05882 
r117 294 317 5.05882 
r118 293 317 5.05882 
r119 292 311 1.85294 
r120 287 301 3.88985 
r121 287 290 183.96 
r122 282 300 3.88985 
r123 282 285 183.96 
r124 277 299 3.88985 
r125 277 280 183.96 
r126 272 298 3.88985 
r127 272 275 183.96 
r128 267 297 3.88985 
r129 267 270 183.96 
r130 262 296 3.88985 
r131 262 265 183.96 
r132 257 295 3.88985 
r133 257 260 183.96 
r134 252 294 3.88985 
r135 252 255 183.96 
r136 247 293 3.88985 
r137 247 250 183.96 
r138 242 292 3.88985 
r139 242 245 183.96 
r140 349 171 0.00142683 
r141 469 171 3 
r142 341 153 0.00142683 
r143 463 153 3 
r144 333 128 0.00142683 
r145 458 128 3 
r146 341 117 0.0277856 
r147 460 117 3 
r148 325 92 0.00142683 
r149 453 92 3 
r150 333 81 0.0277856 
r151 455 81 3 
r152 317 56 0.00142683 
r153 448 56 3 
r154 325 45 0.0277856 
r155 450 45 3 
r156 311 20 0.00142683 
r157 441 20 3 
r158 317 9 0.0277856 
r159 445 9 3 
.ends

.subckt PM_PC3B21EU%VSSO 399 416 456 460 792 796 803 834 841 848 867 869 875
+ 881 885 889 898 904 910 919 925 931 937 946 952 958 964 973 979 991 1039 1044
+ 1049 1055
c0 1055 0 32.4039f
c1 1042 0 2.23536f
c2 1039 0 33.7305f
c3 1024 0 7.93836f
c4 1022 0 6.97061f
c5 1017 0 6.97573f
c6 1012 0 6.97845f
c7 1007 0 6.96841f
c8 1002 0 6.96832f
c9 991 0 0.00201294f
c10 986 0 8.95235f
c11 979 0 0.342413f
c12 964 0 1.26648f
c13 958 0 1.20098f
c14 952 0 1.36598f
c15 937 0 1.39169f
c16 931 0 1.35627f
c17 925 0 1.35586f
c18 910 0 1.34294f
c19 904 0 1.2672f
c20 889 0 1.42855f
c21 885 0 1.87014f
c22 881 0 1.36804f
c23 869 0 0.001011f
c24 867 0 8.25608e-19
c25 865 0 8.96457f
c26 853 0 7.85007f
c27 847 0 1.27875f
c28 837 0 1.65152f
c29 834 0 58.2587f
c30 811 0 5.27525f
c31 799 0 1.31809f
c32 796 0 10.6388f
c33 789 0 0.209883f
c34 782 0 0.0993309f
c35 776 0 3.98126f
c36 773 0 4.74212f
c37 770 0 0.12338f
c38 769 0 0.0541815f
c39 768 0 0.891677f
c40 766 0 0.0588227f
c41 765 0 0.348687f
c42 756 0 12.7658f
c43 755 0 1.11546f
c44 749 0 0.584093f
c45 745 0 0.708327f
c46 744 0 0.20076f
c47 742 0 3.24749f
c48 740 0 0.383003f
c49 739 0 0.713156f
c50 738 0 0.303464f
c51 737 0 3.27566f
c52 736 0 0.383249f
c53 735 0 0.0476963f
c54 734 0 1.88216f
c55 732 0 0.21098f
c56 731 0 0.0291746f
c57 696 0 0.122915f
c58 695 0 8.93827f
c59 662 0 0.27494f
c60 658 0 7.03694f
c61 655 0 0.146306f
c62 460 0 0.297547f
c63 456 0 0.445978f
c64 441 0 2.66469f
c65 439 0 0.219466f
c66 437 0 0.316102f
c67 435 0 0.227322f
c68 416 0 0.78222f
c69 415 0 0.108861f
c70 404 0 0.0720365f
c71 403 0 0.207048f
c72 399 0 2.57134f
c73 394 0 0.0437187f
c74 393 0 0.140491f
c75 282 0 14.0366f
c76 232 0 14.0406f
c77 182 0 14.0428f
c78 132 0 14.0421f
c79 82 0 14.042f
c80 10 0 0.146306f
r81 1053 1055 0.00282778 
r82 1052 1053 0.355444 
r83 1049 1052 0.00283333 
r84 1044 1046 0.0188065 
r85 1042 1044 0.00289331 
r86 1036 1037 0.11107 
r87 1035 1036 0.0327273 
r88 1034 1035 0.0259893 
r89 1033 1034 0.0396791 
r90 1032 1033 0.0383957 
r91 1031 1032 0.0347594 
r92 1030 1031 0.0872727 
r93 1029 1030 0.0253476 
r94 1028 1029 0.0242246 
r95 996 997 0.0140639 
r96 990 991 0.0126606 
r97 1024 988 0.0113761 
r98 986 988 0.0638298 
r99 983 1037 2 
r100 979 983 0.000380952 
r101 967 1036 0.6 
r102 964 967 0.46 
r103 961 1035 0.6 
r104 958 961 0.46 
r105 955 1034 0.6 
r106 952 955 0.285 
r107 940 1033 0.6 
r108 937 940 0.32 
r109 934 1032 0.6 
r110 931 934 0.36 
r111 928 1031 0.6 
r112 925 928 0.37 
r113 913 1030 0.6 
r114 910 913 0.3225 
r115 907 1029 0.6 
r116 904 907 0.325 
r117 892 1028 0.6 
r118 889 892 0.3425 
r119 867 990 0.013211 
r120 986 867 0.000917431 
r121 865 867 0.000913242 
r122 865 996 0.0638298 
r123 853 996 0.0113242 
r124 851 853 0.0327869 
r125 850 851 0.029258 
r126 847 850 0.0131449 
r127 847 848 0.02 
r128 844 1053 0.357143 
r129 841 844 0.21 
r130 839 1039 0.00544385 
r131 1037 839 0.0345455 
r132 837 839 1 
r133 837 841 0.445 
r134 832 834 0.00612761 
r135 832 1024 0.0327869 
r136 973 830 0.130435 
r137 830 1022 0.00301741 
r138 1019 830 0.00301741 
r139 828 830 0.0266667 
r140 828 832 0.0287785 
r141 946 827 0.130435 
r142 827 1017 0.00301741 
r143 1014 827 0.00301741 
r144 825 827 0.0266667 
r145 825 828 0.0242129 
r146 919 824 0.130435 
r147 824 1012 0.00301741 
r148 1009 824 0.00301741 
r149 822 824 0.0266667 
r150 822 825 0.0242129 
r151 821 822 0.000615582 
r152 898 820 0.130435 
r153 820 1007 0.00301741 
r154 1004 820 0.00301741 
r155 818 820 0.0266667 
r156 818 821 0.0235973 
r157 875 817 0.130435 
r158 817 1002 0.00301741 
r159 999 817 0.00301741 
r160 815 817 0.0266667 
r161 815 818 0.0242129 
r162 814 850 0.02 
r163 814 815 0.0277012 
r164 811 1046 0.6 
r165 851 809 0.446124 
r166 809 811 2.21804 
r167 806 1052 0.357143 
r168 803 806 0.21 
r169 801 1048 0.154128 
r170 1046 801 0.0295118 
r171 799 801 1 
r172 799 803 0.445 
r173 788 1028 0.0113369 
r174 788 789 0.00148841 
r175 782 785 0.0536842 
r176 775 789 0.0914723 
r177 775 776 4.72 
r178 772 782 0.02 
r179 772 773 6.35789 
r180 769 770 0.16125 
r181 768 769 0.044815 
r182 767 768 1.17829 
r183 765 767 0.0447012 
r184 765 766 0.340282 
r185 885 764 0.29125 
r186 762 764 0.6 
r187 881 761 0.365 
r188 759 761 0.6 
r189 759 762 0.0654545 
r190 758 759 0.0429412 
r191 757 1042 0.0200072 
r192 757 758 0.0770588 
r193 756 789 0.00148841 
r194 756 762 0.00636364 
r195 755 766 0.0455141 
r196 1048 755 2.98571 
r197 749 782 0.02 
r198 749 750 0.746316 
r199 747 991 0.230275 
r200 745 986 0.210275 
r201 741 869 0.229041 
r202 741 742 0.0863581 
r203 739 865 0.209132 
r204 739 740 0.0863581 
r205 747 737 0.0861375 
r206 737 738 0.132033 
r207 745 736 0.0861375 
r208 735 744 0.0320935 
r209 733 744 0.0320935 
r210 733 734 2.66 
r211 785 732 3 
r212 731 734 0.0408551 
r213 731 732 0.109474 
r214 696 867 0.128 
r215 695 738 0.0473573 
r216 695 867 0.126 
r217 662 696 0.0473573 
r218 742 662 0.132033 
r219 658 867 0.126 
r220 656 867 0.128 
r221 655 656 0.0473573 
r222 655 740 0.250407 
r223 773 443 6 
r224 776 441 6 
r225 460 439 0.109474 
r226 758 439 1.5 
r227 770 437 6 
r228 456 435 0.0610526 
r229 750 435 2 
r230 433 441 2.87714 
r231 432 437 0.3875 
r232 415 443 0.0413535 
r233 415 416 1.14783 
r234 403 433 0.0447781 
r235 403 404 0.244615 
r236 398 404 0.0453233 
r237 398 399 2.0925 
r238 395 735 0.153333 
r239 394 432 0.0462682 
r240 393 395 0.0469364 
r241 393 394 0.150112 
r242 316 796 0.0419737 
r243 792 316 0.0413851 
r244 821 316 0.00128205 
r245 973 282 0.00313778 
r246 1022 282 0.0652174 
r247 988 271 0.0141284 
r248 271 990 0.0652174 
r249 946 232 0.00313778 
r250 1017 232 0.0652174 
r251 222 973 0.00313778 
r252 1019 222 0.0652174 
r253 919 182 0.00313778 
r254 1012 182 0.0652174 
r255 172 946 0.00313778 
r256 1014 172 0.0652174 
r257 898 132 0.00313778 