* File: pc3b03ed.dist.sp.pex
* Created: Sun Jul  4 12:13:05 2010
* Program "Calibre xRC"
* Version "v2008.4_19.14"
* Nominal Temperature: 27C
* Circuit Temperature: 27C
* 
.subckt PM_PC3B03ED%PAD 21 50 79 108 137 166 218 242 266 290 320 326 389 428
+ 452 459
c0 467 0 29.7163f
c1 460 0 83.1566f
c2 459 0 64.3341f
c3 456 0 159.215f
c4 451 0 1.02644f
c5 444 0 9.85679f
c6 434 0 14.4166f
c7 425 0 0.117887f
c8 423 0 215.844f
c9 408 0 15.3329f
c10 397 0 46.9248f
c11 392 0 65.4578f
c12 390 0 16.0067f
c13 389 0 1.0343f
c14 388 0 3.89045f
c15 326 0 13.4666f
c16 320 0 13.477f
c17 290 0 13.4732f
c18 266 0 13.485f
c19 242 0 13.7769f
c20 218 0 13.475f
c21 176 0 7.52869f
c22 166 0 2.98552f
c23 149 0 6.78371f
c24 137 0 2.98621f
c25 120 0 6.78371f
c26 108 0 2.98621f
c27 91 0 6.78371f
c28 79 0 2.9856f
c29 62 0 6.78371f
c30 50 0 2.98471f
c31 33 0 6.78371f
c32 21 0 2.98457f
c33 4 0 6.78371f
r34 467 468 0.118407 
r35 466 467 0.118407 
r36 465 466 0.056883 
r37 464 465 0.061524 
r38 463 464 0.118407 
r39 462 463 0.0830354 
r40 461 462 0.0353716 
r41 459 460 0.0126934 
r42 457 459 0.000382252 
r43 456 457 0.0669731 
r44 451 452 0.00916 
r45 444 462 0.0545455 
r46 434 465 0.015 
r47 425 428 0.00916 
r48 425 451 2 
r49 423 434 0.0264274 
r50 421 423 0.147454 
r51 421 422 0.0288462 
r52 415 416 0.00752787 
r53 414 415 0.021023 
r54 412 414 0.000537705 
r55 412 456 0.00162999 
r56 410 412 0.000537705 
r57 408 410 0.0285508 
r58 399 451 0.1388 
r59 398 399 0.132996 
r60 397 398 0.0171733 
r61 394 395 0.0171733 
r62 393 394 0.0171733 
r63 392 393 0.0171733 
r64 391 397 0.0142401 
r65 391 395 0.00293318 
r66 390 422 0.00646891 
r67 390 392 0.00818451 
r68 388 444 0.202116 
r69 388 389 0.0147368 
r70 315 320 0.0072093 
r71 392 315 0.0566038 
r72 313 326 0.0072093 
r73 398 313 0.0566038 
r74 286 290 0.0072093 
r75 397 286 0.0566038 
r76 262 266 0.0072093 
r77 395 262 0.0566038 
r78 238 242 0.0072093 
r79 394 238 0.0566038 
r80 214 218 0.0072093 
r81 393 214 0.0566038 
r82 194 197 0.0022831 
r83 416 194 0.0375475 
r84 194 457 0.00547945 
r85 414 193 0.00210084 
r86 191 193 0.000537705 
r87 410 191 0.00210084 
r88 193 182 0.0105115 
r89 415 182 0.00712251 
r90 178 197 0.0187738 
r91 182 178 0.00376393 
r92 416 178 0.00712251 
r93 176 191 0.0142754 
r94 408 176 0.00356125 
r95 460 173 0.345778 
r96 172 468 0.0220132 
r97 172 173 0.319822 
r98 166 153 0.00249413 
r99 173 153 0.0425532 
r100 149 166 0.00249413 
r101 173 149 0.0425532 
r102 460 144 0.345778 
r103 143 467 0.0220132 
r104 143 144 0.319822 
r105 137 124 0.00249413 
r106 144 124 0.0425532 
r107 120 137 0.00249413 
r108 144 120 0.0425532 
r109 460 115 0.345778 
r110 114 466 0.0220132 
r111 114 115 0.319822 
r112 108 95 0.00249413 
r113 115 95 0.0425532 
r114 91 108 0.00249413 
r115 115 91 0.0425532 
r116 460 86 0.345778 
r117 85 464 0.0220132 
r118 85 86 0.319822 
r119 79 66 0.00249413 
r120 86 66 0.0425532 
r121 62 79 0.00249413 
r122 86 62 0.0425532 
r123 460 57 0.345778 
r124 56 463 0.0220132 
r125 56 57 0.319822 
r126 50 37 0.00249413 
r127 57 37 0.0425532 
r128 33 50 0.00249413 
r129 57 33 0.0425532 
r130 460 28 0.345778 
r131 27 461 0.0220132 
r132 27 28 0.319822 
r133 21 8 0.00249413 
r134 28 8 0.0425532 
r135 4 21 0.00249413 
r136 28 4 0.0425532 
.ends

.subckt PM_PC3B03ED%VSSO 411 439 445 489 783 801 840 844 851 882 889 901 917
+ 919 924 929 935 944 950 956 966 975 981 987 996 1002 1008 1014 1023 1029 1035
+ 1041 1050 1056 1068 1122 1128 1132 1138
c0 1138 0 32.9993f
c1 1125 0 2.00092f
c2 1122 0 48.0359f
c3 1100 0 7.93553f
c4 1098 0 6.95716f
c5 1093 0 6.96137f
c6 1088 0 6.96314f
c7 1083 0 6.96692f
c8 1078 0 6.96935f
c9 1068 0 0.00391448f
c10 1063 0 8.95235f
c11 1056 0 0.342413f
c12 1041 0 1.26648f
c13 1035 0 1.20098f
c14 1029 0 1.36598f
c15 1014 0 1.39169f
c16 1008 0 1.35654f
c17 1002 0 1.35559f
c18 987 0 1.34435f
c19 981 0 1.47113f
c20 966 0 1.07076f
c21 963 0 0.907223f
c22 956 0 1.26782f
c23 950 0 1.3825f
c24 935 0 1.97907f
c25 929 0 1.55518f
c26 924 0 1.68889f
c27 922 0 0.242286f
c28 919 0 0.00302732f
c29 917 0 8.25608e-19
c30 915 0 8.96457f
c31 899 0 7.86396f
c32 895 0 1.27875f
c33 885 0 1.65581f
c34 882 0 58.2587f
c35 859 0 7.05129f
c36 847 0 1.34782f
c37 844 0 10.6383f
c38 832 0 0.115324f
c39 826 0 5.07379f
c40 823 0 0.112727f
c41 822 0 0.0407635f
c42 821 0 1.53072f
c43 819 0 0.0515737f
c44 818 0 0.327431f
c45 817 0 0.686568f
c46 811 0 0.582338f
c47 807 0 0.708327f
c48 799 0 0.282651f
c49 797 0 0.04289f
c50 796 0 3.25549f
c51 794 0 0.383003f
c52 793 0 0.713156f
c53 792 0 0.303464f
c54 791 0 3.27963f
c55 790 0 0.383249f
c56 789 0 0.196727f
c57 787 0 0.272034f
c58 783 0 1.30172e-19
c59 782 0 1.37873f
c60 781 0 0.0506725f
c61 780 0 0.128411f
c62 778 0 0.0191084f
c63 776 0 2.15428f
c64 774 0 0.0575881f
c65 773 0 0.183911f
c66 772 0 0.343284f
c67 739 0 0.122915f
c68 738 0 8.89774f
c69 705 0 0.269574f
c70 700 0 7.03694f
c71 698 0 1.77413f
c72 694 0 0.146306f
c73 489 0 0.445978f
c74 467 0 0.101523f
c75 465 0 0.227322f
c76 459 0 0.314944f
c77 458 0 0.350279f
c78 445 0 0.550218f
c79 439 0 0.929873f
c80 438 0 0.121244f
c81 434 0 1.2057f
c82 433 0 0.0682447f
c83 431 0 0.227237f
c84 411 0 0.114802f
c85 404 0 0.121709f
c86 282 0 14.0339f
c87 232 0 14.0345f
c88 182 0 14.0365f
c89 132 0 14.0394f
c90 82 0 14.0414f
c91 10 0 0.146306f
r92 1136 1138 0.00282778 
r93 1135 1136 0.355444 
r94 1132 1135 0.00283333 
r95 1127 1129 0.010449 
r96 1127 1128 0.02 
r97 1125 1127 0.0140408 
r98 1119 1120 0.11107 
r99 1118 1119 0.0327273 
r100 1117 1118 0.0259893 
r101 1116 1117 0.0396791 
r102 1115 1116 0.0383957 
r103 1114 1115 0.0347594 
r104 1113 1114 0.0926203 
r105 1112 1113 0.0253476 
r106 1111 1112 0.0215508 
r107 1110 1111 0.0059893 
r108 1109 1110 0.0404278 
r109 1108 1109 0.0237433 
r110 1107 1108 0.0234225 
r111 1106 1107 0.0203209 
r112 1105 1106 0.0213904 
r113 1104 1125 0.02 
r114 1104 1105 0.0715508 
r115 1072 1073 0.0140639 
r116 1067 1068 0.0126606 
r117 1100 1065 0.0113761 
r118 1063 1065 0.0638298 
r119 1060 1120 2 
r120 1056 1060 0.000380952 
r121 1044 1119 0.6 
r122 1041 1044 0.46 
r123 1038 1118 0.6 
r124 1035 1038 0.46 
r125 1032 1117 0.6 
r126 1029 1032 0.285 
r127 1017 1116 0.6 
r128 1014 1017 0.32 
r129 1011 1115 0.6 
r130 1008 1011 0.36 
r131 1005 1114 0.6 
r132 1002 1005 0.37 
r133 990 1113 0.6 
r134 987 990 0.3225 
r135 984 1112 0.6 
r136 981 984 0.325 
r137 969 1111 0.6 
r138 966 969 0.3425 
r139 963 1110 2 
r140 959 1109 0.75 
r141 956 959 0.04 
r142 953 1108 0.6 
r143 950 953 0.365 
r144 938 1107 0.6 
r145 935 938 0.194286 
r146 932 1106 0.6 
r147 929 932 0.3175 
r148 926 1105 0.666667 
r149 924 926 0.96 
r150 917 1067 0.013211 
r151 1063 917 0.000917431 
r152 915 917 0.000913242 
r153 915 1072 0.0638298 
r154 900 901 0.02 
r155 899 1072 0.0113242 
r156 897 899 0.0327869 
r157 897 900 0.0166784 
r158 895 897 0.029258 
r159 892 1136 0.357143 
r160 889 892 0.21 
r161 887 1122 0.00544385 
r162 1120 887 0.0345455 
r163 885 887 1 
r164 885 889 0.445 
r165 880 882 0.00612761 
r166 880 1100 0.0327869 
r167 1050 878 0.130435 
r168 878 1098 0.00301741 
r169 1095 878 0.00301741 
r170 876 878 0.0266667 
r171 876 880 0.0287785 
r172 1023 875 0.130435 
r173 875 1093 0.00301741 
r174 1090 875 0.00301741 
r175 873 875 0.0266667 
r176 873 876 0.0242129 
r177 996 872 0.130435 
r178 872 1088 0.00301741 
r179 1085 872 0.00301741 
r180 870 872 0.0266667 
r181 870 873 0.0242129 
r182 869 870 0.000615582 
r183 975 868 0.130435 
r184 868 1083 0.00301741 
r185 1080 868 0.00301741 
r186 866 868 0.0266667 
r187 866 869 0.0235973 
r188 944 865 0.130435 
r189 865 1078 0.00301741 
r190 1075 865 0.00301741 
r191 863 865 0.0266667 
r192 863 866 0.0242129 
r193 862 895 0.02 
r194 862 863 0.0277012 
r195 859 1129 0.6 
r196 900 857 0.429445 
r197 857 859 2.21804 
r198 854 1135 0.357143 
r199 851 854 0.21 
r200 849 1131 0.144104 
r201 1129 849 0.0333061 
r202 847 849 1 
r203 847 851 0.445 
r204 835 922 3 
r205 832 835 0.0536842 
r206 825 832 0.02 
r207 825 826 6.35789 
r208 822 823 0.1275 
r209 821 822 0.0448391 
r210 820 821 2.75862 
r211 818 820 0.044715 
r212 818 819 0.466667 
r213 817 819 0.0450432 
r214 1131 817 1.29371 
r215 811 832 0.02 
r216 811 812 0.746316 
r217 809 1068 0.230275 
r218 807 1063 0.210275 
r219 805 963 1.57429 
r220 799 801 0.0536774 
r221 797 922 0.109474 
r222 795 919 0.229041 
r223 795 796 0.0863581 
r224 793 915 0.209132 
r225 793 794 0.0863581 
r226 809 791 0.0861375 
r227 791 792 0.132033 
r228 807 790 0.0861375 
r229 789 806 0.02 
r230 788 789 0.3525 
r231 787 806 0.0457143 
r232 782 788 0.0446983 
r233 782 783 1.36375 
r234 780 805 0.0448488 
r235 780 781 0.15871 
r236 779 799 0.0200258 
r237 778 781 0.044801 
r238 801 777 0.0583771 
r239 777 778 0.0519298 
r240 797 776 0.0420103 
r241 775 776 3.01467 
r242 773 775 0.0446983 
r243 773 774 0.276 
r244 772 774 0.0447588 
r245 739 917 0.128 
r246 738 792 0.0473573 
r247 738 917 0.126 
r248 705 739 0.0473573 
r249 796 705 0.132033 
r250 702 806 0.218571 
r251 700 917 0.126 
r252 698 779 2.98429 
r253 697 924 1.1475 
r254 695 917 0.128 
r255 694 695 0.0473573 
r256 694 794 0.250407 
r257 826 469 6 
r258 823 467 3 
r259 489 465 0.0610526 
r260 812 465 2 
r261 459 461 0.135714 
r262 702 459 0.02 
r263 697 458 0.0338756 
r264 444 445 0.250588 
r265 438 469 0.0413535 
r266 438 439 1.14783 
r267 435 461 0.02 
r268 434 444 0.0446983 
r269 434 435 1.72588 
r270 433 787 0.39 
r271 698 431 0.0446983 
r272 430 433 0.0446983 
r273 430 431 0.387143 
r274 410 458 0.00880368 
r275 410 411 0.1375 
r276 404 772 0.6025 
r277 404 467 0.0265396 
r278 316 844 0.0419737 
r279 840 316 0.0413851 
r280 869 316 0.00128205 
r281 1050 282 0.00313778 
r282 1098 282 0.0652174 
r283 1065 271 0.0141284 
r284 271 1067 0.0652174 
r285 1023 232 0.00313778 
r286 1093 232 0.0652174 
r287 222 1050 0.00313778 
r288 1095 222 0.0652174 
r289 996 182 0.00313778 
r290 1088 182 0.0652174 
r291 172 1023 0.00313778 
r292 1090 172 0.0652174 
r293 975 132 0.00313778 
r294 1083 132 0.0652174 
r295 122 996 0.00313778 
r296 1085 122 0.0652174 
r297 944 82 0.00313778 
r298 1078 82 0.0652174 
r299 72 975 0.00313778 
r300 1080 72 0.0652174 
r301 32 919 0.0126027 
r302 917 32 0.0131507 
r303 1073 32 0.0652174 
r304 22 944 0.00313778 
r305 1075 22 0.0652174 
r306 10 790 0.250407 
r307 10 700 0.0473573 
.ends

.subckt PM_PC3B03ED%U30_MN3_drain 24 43 46 58
c0 87 0 0.434288f
c1 70 0 0.0944991f
c2 64 0 0.159131f
c3 62 0 2.6102f
c4 58 0 1.90405f
c5 57 0 0.172664f
c6 55 0 0.0779336f
c7 46 0 3.60518f
c8 43 0 1.95258e-19
c9 42 0 0.37134f
c10 40 0 0.0501812f
c11 39 0 0.226503f
c12 38 0 0.0930891f
c13 36 0 0.0482716f
c14 35 0 2.79876f
c15 34 0 4.72684f
c16 32 0 0.0509264f
c17 30 0 0.0413779f
c18 29 0 0.997131f
c19 28 0 3.1424f
c20 26 0 0.745909f
c21 24 0 0.728943f
r22 67 70 0.0279365 
r23 67 84 6 
r24 64 87 0.0570734 
r25 62 64 6 
r26 70 62 4.22571 
r27 57 84 0.0622222 
r28 53 55 0.0695652 
r29 43 46 0.0899654 
r30 42 58 0.060521 
r31 42 43 0.189066 
r32 39 58 0.0798032 
r33 39 40 0.345946 
r34 38 40 0.0451524 
r35 37 38 0.166452 
r36 35 48 0.0447588 
r37 35 36 5.04533 
r38 34 36 0.0447675 
r39 33 57 0.0448998 
r40 33 34 6.69 
r41 87 32 0.673043 
r42 29 37 0.0446983 
r43 29 30 1.73032 
r44 28 32 0.0446983 
r45 27 55 0.02 
r46 27 28 4.08174 
r47 26 53 0.02 
r48 25 30 0.0459862 
r49 25 26 1.94609 
r50 48 24 0.83 
.ends

.subckt PM_PC3B03ED%noxref_4 8 18
c0 20 0 4.77394f
c1 18 0 0.976551f
c2 8 0 6.70989f
r3 18 20 0.158105 
r4 20 8 0.158526 
.ends

.subckt PM_PC3B03ED%U28_padr 45 51 59 112 114 116 152 161
c0 238 0 9.31194f
c1 236 0 3.14892f
c2 232 0 16.0155f
c3 225 0 0.321019f
c4 223 0 15.8552f
c5 211 0 0.145032f
c6 210 0 0.0372673f
c7 209 0 0.0478417f
c8 208 0 0.0873247f
c9 205 0 7.01807f
c10 202 0 0.602534f
c11 200 0 0.138593f
c12 196 0 5.63191f
c13 194 0 0.516722f
c14 192 0 0.0693973f
c15 191 0 0.17633f
c16 190 0 0.352674f
c17 186 0 0.760714f
c18 177 0 1.00148f
c19 171 0 2.10501f
c20 162 0 2.20183f
c21 161 0 1.07645f
c22 160 0 0.703354f
c23 152 0 0.408011f
c24 134 0 0.0930625f
c25 127 0 0.0881919f
c26 116 0 1.09963f
c27 114 0 0.555211f
c28 112 0 1.04215f
c29 89 0 0.563213f
c30 88 0 0.230127f
c31 84 0 0.394018f
c32 81 0 0.414556f
c33 80 0 0.400764f
c34 78 0 0.482099f
c35 74 0 0.51022f
c36 72 0 0.0445006f
c37 71 0 0.0807034f
c38 69 0 0.0636042f
c39 68 0 0.0806965f
c40 67 0 0.0752995f
c41 63 0 0.0548092f
c42 62 0 0.0971209f
c43 59 0 2.01341f
c44 56 0 0.0524665f
c45 55 0 0.414647f
c46 51 0 2.31479f
c47 49 0 0.533863f
c48 45 0 2.27292f
c49 11 0 0.0390707f
r50 244 234 0.172857 
r51 232 234 6 
r52 229 230 0.205333 
r53 227 229 0.229333 
r54 225 244 0.17 
r55 223 225 6 
r56 211 213 3 
r57 210 211 0.109474 
r58 210 208 0.0456991 
r59 208 209 0.147143 
r60 205 244 2 
r61 203 209 0.0446983 
r62 203 205 10.3129 
r63 202 213 0.30381 
r64 198 200 0.111429 
r65 238 196 0.185079 
r66 194 196 1.2 
r67 193 194 0.482857 
r68 191 193 0.0446983 
r69 191 192 0.125714 
r70 190 192 0.0446983 
r71 189 202 0.0446983 
r72 189 190 0.407619 
r73 186 236 6 
r74 184 200 0.02 
r75 184 186 1.24571 
r76 182 232 7.10667 
r77 230 182 3.652 
r78 180 182 6 
r79 179 223 7.10667 
r80 177 179 6 
r81 177 180 0.342857 
r82 176 198 0.02 
r83 176 177 1.25286 
r84 160 238 0.18836 
r85 160 161 0.0147368 
r86 159 236 3.69429 
r87 152 159 0.0672019 
r88 104 116 168.333 
r89 104 134 3.92502 
r90 95 112 168.333 
r91 127 95 3.6393 
r92 171 88 6 
r93 85 174 1.255 
r94 171 85 2.395 
r95 85 230 6 
r96 84 134 0.77 
r97 174 84 6 
r98 81 169 1.2525 
r99 81 229 6 
r100 80 127 0.7825 
r101 169 80 6 
r102 162 78 6 
r103 75 165 1.205 
r104 162 75 2.4675 
r105 75 227 6 
r106 165 74 6 
r107 72 88 0.17 
r108 69 74 0.642857 
r109 68 78 0.671429 
r110 67 72 0.0446983 
r111 66 67 0.1875 
r112 89 64 1.5 
r113 63 64 0.0525 
r114 62 66 0.0446983 
r115 62 64 0.1025 
r116 58 63 0.0446983 
r117 58 59 1.2575 
r118 57 59 1.3775 
r119 55 57 0.0447588 
r120 55 56 0.544 
r121 71 51 2.375 
r122 49 71 0.12 
r123 48 69 0.0449572 
r124 48 49 0.895 
r125 44 68 0.0449572 
r126 44 45 1.4575 
r127 43 56 0.0447588 
r128 43 45 1.3775 
r129 11 89 6.38571 
r130 10 114 51.6667 
r131 10 11 3.06965 
.ends

.subckt PM_PC3B03ED%U30_U24_OUTSHIFT 9 52 104 125 128
c0 147 0 0.167409f
c1 143 0 0.653409f
c2 138 0 0.0772043f
c3 128 0 0.0942663f
c4 125 0 0.590035f
c5 122 0 0.0956473f
c6 121 0 0.498541f
c7 98 0 0.473181f
c8 96 0 0.0481667f
c9 95 0 0.373669f
c10 91 0 14.5924f
c11 89 0 0.508772f
c12 86 0 1.78305f
c13 84 0 0.0490708f
c14 83 0 0.160245f
c15 78 0 2.49606f
c16 73 0 0.357208f
c17 69 0 2.35527f
c18 62 0 0.33276f
c19 55 0 0.377204f
c20 52 0 0.224817f
c21 50 0 0.777056f
c22 47 0 3.08355f
c23 45 0 0.251625f
c24 44 0 0.331536f
c25 18 0 0.990885f
c26 9 0 1.96448f
c27 4 0 0.548067f
r28 132 133 3.28667 
r29 130 132 0.42 
r30 121 128 52.3333 
r31 121 122 2.1393 
r32 109 125 52.3333 
r33 109 138 2.1393 
r34 98 143 6 
r35 96 98 0.587097 
r36 93 95 6 
r37 133 91 3.256 
r38 89 91 6 
r39 89 93 0.596129 
r40 88 96 0.0446983 
r41 88 93 0.0696774 
r42 85 86 2.3625 
r43 83 85 0.0449572 
r44 83 84 0.145714 
r45 80 84 0.0446983 
r46 78 138 4.91143 
r47 76 78 6 
r48 73 76 0.592857 
r49 73 132 6 
r50 69 130 6 
r51 67 69 3.76714 
r52 65 147 0.0257143 
r53 63 65 6 
r54 62 67 0.0446983 
r55 62 63 0.337143 
r56 61 143 0.912857 
r57 60 95 0.433548 
r58 55 61 0.0446983 
r59 55 122 0.425714 
r60 50 60 0.0471889 
r61 50 52 0.378723 
r62 47 147 0.02 
r63 46 47 4.10429 
r64 45 46 0.0448488 
r65 44 45 0.0916625 
r66 19 44 9.07143 
r67 18 104 85 
r68 18 19 3.37824 
r69 9 7 1.525 
r70 86 7 6 
r71 80 4 0.985714 
r72 4 133 6 
.ends

.subckt PM_PC3B03ED%VDDO 757 762 769 776 783 790 797 804 916 941 943 951 955
+ 959 966 1030 1036 1259 1310 1314 1317 1322 1329 1336 1357 1385 1399 1407 1415
+ 1421 1427 1433 1439 1445 1451 1457 1463 1516 1534 1566 1571
c0 1571 0 21.281f
c1 1560 0 4.29223f
c2 1551 0 7.42905f
c3 1542 0 8.84455f
c4 1537 0 5.98284f
c5 1534 0 53.7773f
c6 1513 0 2.59746f
c7 1510 0 2.53735f
c8 1463 0 0.495012f
c9 1457 0 1.39365f
c10 1451 0 2.72268f
c11 1445 0 1.37593f
c12 1439 0 2.75317f
c13 1433 0 3.53935f
c14 1427 0 0.814052f
c15 1421 0 1.88775f
c16 1415 0 2.50375f
c17 1412 0 4.54629f
c18 1396 0 0.505531f
c19 1390 0 13.9947f
c20 1389 0 32.1243f
c21 1388 0 1.97524f
c22 1385 0 65.8737f
c23 1384 0 1.61686f
c24 1335 0 53.4285f
c25 1325 0 0.70567f
c26 1324 0 1.51121f
c27 1322 0 3.02645f
c28 1314 0 2.52199f
c29 1302 0 1.73391f
c30 1299 0 0.0739933f
c31 1294 0 0.110312f
c32 1280 0 0.0798089f
c33 1278 0 0.381592f
c34 1274 0 0.0747013f
c35 1268 0 2.49564f
c36 1264 0 0.0863009f
c37 1263 0 2.21392f
c38 1259 0 0.940128f
c39 1258 0 0.05188f
c40 1257 0 0.248696f
c41 1221 0 10.0073f
c42 1220 0 9.76182f
c43 1047 0 0.141182f
c44 1036 0 0.0818467f
c45 1030 0 0.383066f
c46 1011 0 0.160097f
c47 1009 0 0.293849f
c48 1005 0 0.688369f
c49 1002 0 0.129353f
c50 1000 0 2.88492f
c51 997 0 0.545213f
c52 996 0 0.288987f
c53 992 0 0.14475f
c54 990 0 8.70623f
c55 989 0 3.93434f
c56 987 0 0.0491072f
c57 985 0 0.0277236f
c58 984 0 7.31185f
c59 982 0 0.195578f
c60 972 0 0.0967967f
c61 966 0 1.44587f
c62 963 0 0.723023f
c63 959 0 1.3445f
c64 951 0 1.16225e-19
c65 950 0 4.07445f
c66 943 0 0.354477f
c67 941 0 0.732104f
c68 937 0 0.0461742f
c69 936 0 0.15885f
c70 935 0 0.105984f
c71 933 0 0.0579357f
c72 932 0 0.170036f
c73 931 0 0.0310863f
c74 930 0 0.2917f
c75 929 0 2.58877f
c76 916 0 1.45951f
c77 809 0 7.25051f
c78 797 0 0.00989968f
c79 790 0 0.00989968f
c80 783 0 0.0234465f
c81 776 0 0.0106158f
c82 769 0 0.0106158f
c83 762 0 0.00828265f
c84 757 0 7.64856f
c85 729 0 12.1697f
c86 727 0 19.8924f
c87 725 0 19.8924f
c88 723 0 19.7377f
c89 721 0 19.8924f
c90 719 0 19.8919f
c91 717 0 11.9309f
c92 691 0 0.115005f
c93 690 0 7.3958f
c94 687 0 0.104412f
c95 686 0 6.36558f
c96 17 0 0.152029f
c97 16 0 6.73982f
c98 7 0 0.152029f
c99 6 0 6.75738f
r100 1566 1569 0.00394881 
r101 1560 1561 0.956244 
r102 1553 1554 0.279231 
r103 1551 1553 0.266538 
r104 1544 1545 0.273962 
r105 1542 1544 0.261509 
r106 1538 1539 1.79477 
r107 1537 1538 0.000373832 
r108 1531 1532 0.00862745 
r109 1530 1531 0.235381 
r110 1529 1530 0.0791721 
r111 1528 1529 0.0205664 
r112 1527 1528 0.0279303 
r113 1526 1527 0.0431373 
r114 1525 1526 0.0124619 
r115 1524 1525 0.037037 
r116 1523 1524 0.0354684 
r117 1522 1523 0.0127233 
r118 1521 1522 0.0260566 
r119 1515 1534 0.00304139 
r120 1532 1515 0.00174292 
r121 1513 1515 0.461538 
r122 1510 1531 0.6 
r123 1468 1530 1 
r124 1463 1468 0.22125 
r125 1460 1529 0.6 
r126 1457 1460 0.4475 
r127 1454 1528 0.6 
r128 1451 1454 1.6625 
r129 1448 1527 0.666667 
r130 1445 1448 0.365 
r131 1442 1526 0.545455 
r132 1439 1442 1.4825 
r133 1436 1525 0.545455 
r134 1433 1436 1.63 
r135 1430 1524 0.75 
r136 1427 1430 0.1575 
r137 1424 1523 0.75 
r138 1421 1424 1.1525 
r139 1418 1522 0.5 
r140 1415 1418 1.455 
r141 1516 1414 0.00305011 
r142 1412 1414 0.461538 
r143 1407 1560 0.2 
r144 1403 1571 0.0039415 
r145 1569 1403 0.467422 
r146 1401 1403 0.5 
r147 1399 1401 0.181 
r148 1396 1399 0.17 
r149 1396 1532 1.5 
r150 1393 1394 0.5457 
r151 1390 1393 0.2213 
r152 1389 1390 0.0226 
r153 1388 1407 0.0528252 
r154 1388 1394 0.0966 
r155 1561 1384 0.698216 
r156 1382 1384 0.2 
r157 1382 1385 0.0136564 
r158 1554 1381 0.279231 
r159 1381 1379 0.279231 
r160 1379 1377 0.279231 
r161 1377 1375 0.266538 
r162 1373 1375 1.5 
r163 1373 1377 1.5 
r164 1373 1379 1.5 
r165 1373 1381 1.5 
r166 1373 1382 0.0314855 
r167 1545 1371 0.273962 
r168 1371 1369 0.273962 
r169 1369 1367 0.273962 
r170 1367 1365 0.261509 
r171 1363 1365 1.5 
r172 1363 1367 1.5 
r173 1363 1369 1.5 
r174 1363 1371 1.5 
r175 1539 1362 0.000747664 
r176 1360 1362 0.2 
r177 1360 1363 0.0334274 
r178 1357 1360 0.01361 
r179 1351 1553 1.5 
r180 1351 1551 1.5 
r181 1351 1554 1.5 
r182 1349 1351 0.0694058 
r183 1343 1544 1.5 
r184 1343 1542 1.5 
r185 1343 1349 0.0805639 
r186 1343 1545 1.5 
r187 1339 1537 0.2 
r188 1339 1343 0.0404834 
r189 1336 1339 0.0165962 
r190 1335 1407 0.0245381 
r191 1335 1351 0.0330312 
r192 1332 1569 0.5 
r193 1329 1332 0.181 
r194 1327 1521 0.0183007 
r195 1414 1327 0.00174292 
r196 1325 1327 1.5 
r197 1325 1329 0.17 
r198 1324 1389 0.5048 
r199 1320 1322 0.0526456 
r200 1317 1320 0.0552365 
r201 1501 1292 0.1864 
r202 1277 1280 0.0446983 
r203 1277 1278 0.492857 
r204 1302 1274 0.111429 
r205 1299 1272 0.051813 
r206 1272 1302 2.82714 
r207 1265 1510 4.43857 
r208 1263 1265 0.046046 
r209 1263 1264 2 
r210 1258 1259 1.04875 
r211 1257 1264 0.0446983 
r212 1256 1258 0.0451268 
r213 1256 1257 0.404211 
r214 1221 1292 0.0784 
r215 1220 1501 0.2648 
r216 1219 1501 0.2664 
r217 1218 1501 0.2664 
r218 1044 1294 6 
r219 1041 1051 1.5 
r220 1035 1036 1.3895 
r221 1034 1035 1.2545 
r222 1011 1292 3 
r223 1324 1010 0.0517792 
r224 1010 1011 3 
r225 1009 1051 0.000130933 
r226 1394 1009 1.5 
r227 1294 1007 0.000842105 
r228 1393 1007 6 
r229 1280 1005 1.54429 
r230 1389 1005 6 
r231 1002 1047 0.0561431 
r232 1299 1002 6 
r233 1278 1000 6 
r234 1274 997 0.797143 
r235 997 1035 6 
r236 1268 996 6 
r237 1268 993 3.395 
r238 993 1034 6 
r239 1030 992 0.0621053 
r240 1521 992 2 
r241 990 1041 0.175309 
r242 989 1044 0.077 
r243 988 1000 3.90857 
r244 986 1044 2.062 
r245 986 987 0.0149881 
r246 984 1036 0.5315 
r247 984 985 0.0134463 
r248 980 996 0.175 
r249 979 982 0.1525 
r250 979 980 0.02 
r251 972 1034 0.568 
r252 971 1513 0.526 
r253 971 990 0.0447005 
r254 970 1513 2.122 
r255 970 989 0.0446983 
r256 965 987 0.0313149 
r257 965 966 1.51 
r258 964 985 0.0134463 
r259 963 987 0.0149881 
r260 963 964 0.397 
r261 958 985 0.0342301 
r262 958 959 1.66456 
r263 951 955 1.40842 
r264 950 988 0.046046 
r265 950 955 3.10842 
r266 941 943 0.834783 
r267 940 943 0.106087 
r268 938 1047 0.335 
r269 936 938 0.0446983 
r270 936 937 0.256667 
r271 935 937 0.0446983 
r272 934 935 0.226667 
r273 932 934 0.0446983 
r274 932 933 0.271667 
r275 930 940 0.0446983 
r276 930 931 0.643478 
r277 929 933 0.0446983 
r278 928 931 0.0447246 
r279 928 929 3.6 
r280 915 982 0.02 
r281 915 916 1.3925 
r282 911 1412 2.122 
r283 911 972 0.0446983 
r284 809 757 0.159252 
r285 820 757 0.159252 
r286 757 827 0.159252 
r287 731 820 0.0829907 
r288 757 731 0.0291589 
r289 1561 731 0.1 
r290 762 729 0.793846 
r291 1551 729 1.5 
r292 769 727 0.55145 
r293 1553 727 1.5 
r294 776 725 0.55145 
r295 1554 725 1.5 
r296 783 723 0.55145 
r297 1381 723 1.5 
r298 790 721 0.55145 
r299 1379 721 1.5 
r300 797 719 0.55145 
r301 1377 719 1.5 
r302 804 717 0.793846 
r303 1375 717 1.5 
r304 715 762 0.842637 
r305 1542 715 1.5 
r306 713 769 0.585344 
r307 1544 713 1.5 
r308 711 776 0.585344 
r309 1545 711 1.5 
r310 709 783 0.585344 
r311 1371 709 1.5 
r312 707 790 0.585344 
r313 1369 707 1.5 
r314 705 797 0.585344 
r315 1367 705 1.5 
r316 703 804 0.842637 
r317 1365 703 1.5 
r318 757 701 0.0391734 
r319 1539 701 0.2 
r320 699 757 0.0397569 
r321 1538 699 0.2 
r322 697 827 0.73271 
r323 696 809 0.737944 
r324 695 757 0.73271 
r325 694 757 0.737944 
r326 691 695 0.0451326 
r327 691 757 2.504 
r328 690 697 0.0451326 
r329 690 757 2.44889 
r330 687 694 0.045921 
r331 687 757 2.687 
r332 686 696 0.045921 
r333 686 757 2.885 
r334 323 1373 0.0601494 
r335 1363 323 0.0634357 
r336 323 1320 0.00227273 
r337 322 1314 0.0620926 
r338 1310 322 0.0688218 
r339 1349 322 0.0025 
r340 1221 17 0.0447329 
r341 17 1501 1.51848 
r342 16 1220 0.0447329 
r343 16 1501 1.51162 
r344 1219 7 0.0447329 
r345 7 1501 1.51848 
r346 6 1218 0.0447329 
r347 6 1501 1.51162 
.ends

.subckt PM_PC3B03ED%net_m32_VSSO_res 25 97 101 105 109 113
c0 113 0 0.519409f
c1 109 0 0.519409f
c2 105 0 0.519409f
c3 101 0 0.716723f
c4 97 0 0.73297f
c5 93 0 0.865155f
c6 87 0 0.0518462f
c7 53 0 0.0631005f
c8 43 0 0.242979f
c9 42 0 0.19588f
c10 41 0 0.135544f
c11 40 0 0.102874f
c12 39 0 0.162435f
c13 25 0 0.3761f
c14 24 0 0.190583f
c15 23 0 0.0478193f
c16 22 0 0.372825f
r17 88 93 0.0552941 
r18 87 88 0.02 
r19 86 87 0.124706 
r20 54 97 85 
r21 52 113 85 
r22 52 53 0.93595 
r23 51 109 85 
r24 50 51 1.5553 
r25 49 93 2.20253 
r26 48 50 6.2212 
r27 48 49 1.5553 
r28 47 105 85 
r29 46 48 10.0922 
r30 46 47 1.5553 
r31 45 101 85 
r32 44 53 2.23066 
r33 43 54 3.37824 
r34 43 44 10.8571 
r35 42 50 4.70046 
r36 41 53 2.23066 
r37 41 42 9 
r38 40 45 3.37824 
r39 39 46 2.90323 
r40 39 40 10.8571 
r41 24 25 0.18 
r42 86 23 0.0446983 
r43 22 24 0.0446983 
r44 22 23 0.521176 
.ends

.subckt PM_PC3B03ED%U30_U24_U6_drain 5 30 70
c0 70 0 0.088025f
c1 66 0 0.485087f
c2 60 0 0.145436f
c3 52 0 16.1031f
c4 50 0 0.654194f
c5 45 0 2.03997f
c6 43 0 0.805805f
c7 40 0 0.371994f
c8 37 0 0.53114f
c9 36 0 0.131512f
c10 31 0 1.27552f
c11 30 0 4.09112e-19
c12 13 0 0.424356f
c13 12 0 0.611791f
c14 9 0 0.0269819f
c15 5 0 1.54089f
r16 66 70 52.3333 
r17 58 60 0.128571 
r18 55 56 6 
r19 73 52 2.95333 
r20 50 52 6 
r21 50 55 0.848 
r22 47 60 0.02 
r23 44 58 0.02 
r24 44 45 2.70571 
r25 42 43 1.24286 
r26 41 56 0.0221368 
r27 40 42 0.0448488 
r28 40 41 0.508387 
r29 66 37 2.1393 
r30 36 56 0.0225652 
r31 36 37 0.695873 
r32 31 43 0.0449572 
r33 31 30 1.32625 
r34 47 13 0.645714 
r35 13 73 6 
r36 45 12 6 
r37 9 12 0.611429 
r38 4 9 0.0414583 
r39 4 5 1.1 
.ends

.subckt PM_PC3B03ED%VSS 784 818 841 853 865 871 876 889 891 896
c0 896 0 92.1036f
c1 889 0 57.3586f
c2 874 0 2.37405f
c3 871 0 0.00382406f
c4 868 0 1.19976f
c5 865 0 0.00233123f
c6 862 0 0.833451f
c7 853 0 9.16783e-19
c8 850 0 1.08932f
c9 837 0 1.88699f
c10 830 0 17.6714f
c11 815 0 1.45504f
c12 795 0 25.1546f
c13 793 0 0.176773f
c14 792 0 0.0657505f
c15 791 0 6.25914f
c16 788 0 0.0372194f
c17 784 0 3.60046f
c18 781 0 0.525461f
c19 779 0 0.252265f
c20 778 0 0.575193f
c21 777 0 0.849056f
c22 773 0 10.9527f
c23 766 0 8.70535f
c24 764 0 0.253236f
c25 763 0 0.0958381f
c26 762 0 1.91161f
c27 636 0 2.6272f
c28 633 0 0.224526f
c29 629 0 2.46128f
c30 623 0 1.89745f
c31 621 0 0.391034f
c32 619 0 0.286258f
c33 616 0 26.2498f
c34 608 0 1.24584f
c35 602 0 2.95352f
c36 596 0 0.137389f
c37 595 0 2.52925f
c38 592 0 0.153776f
c39 591 0 3.06833f
c40 588 0 6.34069f
c41 538 0 0.162892f
c42 536 0 0.72248f
c43 534 0 0.201212f
c44 509 0 2.94312f
c45 495 0 3.05957f
c46 493 0 0.031054f
c47 490 0 7.71807f
c48 489 0 0.207813f
c49 474 0 5.73432f
c50 471 0 3.2926f
r51 891 894 0.000703354 
r52 887 889 0.00318245 
r53 886 887 0.00119641 
r54 885 886 0.0752941 
r55 884 885 0.0143968 
r56 883 884 0.0205783 
r57 882 883 0.176949 
r58 881 882 0.0714656 
r59 880 881 0.0645264 
r60 879 880 0.0864606 
r61 876 879 0.00438684 
r62 874 887 0.461538 
r63 868 871 1.28857 
r64 868 885 1.5 
r65 862 865 0.61 
r66 862 884 3 
r67 856 882 0.0517241 
r68 850 853 1.07 
r69 850 881 3 
r70 844 886 0.428571 
r71 841 844 0.189 
r72 839 896 0.000702051 
r73 894 839 0.0832563 
r74 837 839 0.131579 
r75 837 841 0.013 
r76 834 835 0.56934 
r77 833 834 1.12447 
r78 830 833 0.628223 
r79 830 883 0.3 
r80 826 827 0.8252 
r81 821 879 0.428571 
r82 818 821 0.189 
r83 815 818 0.013 
r84 815 894 0.131579 
r85 791 856 2.9955 
r86 791 792 0.0338756 
r87 788 856 2.771 
r88 787 793 0.0338756 
r89 786 792 0.0338756 
r90 784 860 2.59036 
r91 858 784 1.07807 
r92 783 793 0.00880368 
r93 783 784 0.958 
r94 782 792 0.00880368 
r95 782 784 0.986 
r96 778 781 0.061325 
r97 779 777 0.061325 
r98 776 810 3 
r99 784 776 1.9525 
r100 774 784 1.7305 
r101 773 793 0.0338756 
r102 773 776 0.7105 
r103 772 788 0.0448201 
r104 770 874 1.518 
r105 769 874 0.426 
r106 766 860 1.08482 
r107 764 858 1.06072 
r108 763 774 1.373 
r109 762 763 0.0448201 
r110 762 772 2.13041 
r111 827 640 0.24 
r112 638 640 0.056 
r113 636 801 3 
r114 774 633 3 
r115 640 629 0.0075 
r116 858 629 1 
r117 801 623 0.24 
r118 834 623 1.5 
r119 810 621 0.000888889 
r120 833 621 3 
r121 619 860 3 
r122 835 619 3 
r123 616 826 0.3066 
r124 616 880 0.1 
r125 615 633 0.0005 
r126 826 615 3 
r127 778 611 0.0377176 
r128 779 611 0.0683804 
r129 795 611 1 
r130 609 795 0.9618 
r131 609 638 0.02 
r132 608 787 0.5005 
r133 770 608 0.0446983 
r134 607 636 0.830244 
r135 606 636 0.76878 
r136 601 602 1.56095 
r137 596 607 0.0448242 
r138 595 602 0.0447675 
r139 595 596 1.32889 
r140 592 606 0.0446983 
r141 592 593 0.745366 
r142 591 601 0.0447067 
r143 591 593 0.713171 
r144 588 786 0.5005 
r145 588 769 0.0446983 
r146 537 538 0.147619 
r147 533 534 0.14988 
r148 766 533 0.0380723 
r149 530 532 0.143333 
r150 764 529 0.0385542 
r151 527 529 0.14506 
r152 784 526 0.159 
r153 509 784 0.159 
r154 508 538 0.02 
r155 508 526 1.247 
r156 507 534 0.02 
r157 507 509 1.243 
r158 784 506 0.192 
r159 504 784 0.192 
r160 503 504 0.342 
r161 784 503 0.192 
r162 501 784 0.192 
r163 500 501 0.342 
r164 784 500 0.192 
r165 498 784 0.192 
r166 497 498 0.342 
r167 784 497 0.192 
r168 495 784 0.192 
r169 494 537 0.02 
r170 494 506 1.214 
r171 493 536 0.04 
r172 493 495 0.243 
r173 491 533 0.02 
r174 491 536 0.938734 
r175 490 781 4.80524 
r176 490 537 0.0380952 
r177 489 777 0.555238 
r178 489 532 0.0380952 
r179 784 485 0.159 
r180 483 784 0.159 
r181 482 483 0.408 
r182 784 482 0.159 
r183 480 784 0.159 
r184 479 480 0.408 
r185 784 479 0.159 
r186 477 784 0.159 
r187 476 477 0.408 
r188 784 476 0.159 
r189 474 784 0.159 
r190 473 532 0.02 
r191 473 485 1.247 
r192 472 529 0.02 
r193 472 474 1.243 
r194 471 530 0.02 
r195 470 527 0.02 
r196 470 471 4.69271 
.ends

.subckt PM_PC3B03ED%U28_U42_r1 149 154 159 164 169 174 188
c0 309 0 0.256487f
c1 305 0 0.130723f
c2 303 0 0.471615f
c3 298 0 0.466564f
c4 289 0 2.82759f
c5 275 0 0.470345f
c6 271 0 0.21837f
c7 270 0 0.132429f
c8 268 0 0.0553244f
c9 267 0 0.0296336f
c10 266 0 0.306614f
c11 264 0 0.273588f
c12 262 0 0.0794715f
c13 261 0 0.300614f
c14 258 0 6.54296f
c15 253 0 0.151281f
c16 250 0 1.4667f
c17 249 0 0.151281f
c18 248 0 0.161291f
c19 245 0 0.105977f
c20 244 0 1.30493f
c21 242 0 0.297186f
c22 240 0 0.0579117f
c23 238 0 0.107477f
c24 237 0 9.16951f
c25 236 0 0.1249f
c26 234 0 0.352353f
c27 231 0 0.139576f
c28 225 0 0.0902914f
c29 217 0 0.171215f
c30 211 0 0.680566f
c31 203 0 0.539427f
c32 195 0 0.538876f
c33 189 0 0.304636f
c34 188 0 0.278026f
c35 181 0 0.163718f
c36 180 0 0.615824f
c37 179 0 0.170992f
c38 178 0 0.615222f
c39 177 0 0.17098f
c40 176 0 0.545043f
c41 174 0 3.10391f
c42 169 0 3.04886f
c43 164 0 3.04878f
c44 159 0 3.04886f
c45 154 0 3.04886f
c46 149 0 3.10336f