* File: apv0a.dist.sp.pex
* Created: Sun Jul  4 12:04:04 2010
* Program "Calibre xRC"
* Version "v2008.4_19.14"
* Nominal Temperature: 27C
* Circuit Temperature: 27C
* 
.subckt PM_APV0A%U31_U29_c2 78 83 168 173 258 263 282 332 337 342 347 352 358
+ 375
c0 482 0 0.392884f
c1 448 0 0.616275f
c2 445 0 0.427745f
c3 442 0 0.58733f
c4 435 0 0.586036f
c5 432 0 0.427745f
c6 429 0 0.586519f
c7 422 0 0.605407f
c8 419 0 0.427745f
c9 409 0 11.7755f
c10 393 0 16.3437f
c11 392 0 0.21995f
c12 378 0 8.8768f
c13 377 0 1.36655f
c14 375 0 0.334038f
c15 373 0 1.52847f
c16 371 0 5.25509f
c17 370 0 0.0484104f
c18 364 0 0.104961f
c19 363 0 0.532789f
c20 362 0 0.105044f
c21 361 0 0.532789f
c22 360 0 0.105044f
c23 359 0 0.447876f
c24 358 0 2.8106f
c25 352 0 2.75911f
c26 347 0 2.75911f
c27 342 0 2.75911f
c28 337 0 2.75911f
c29 332 0 2.80996f
c30 282 0 2.55285f
c31 263 0 2.75911f
c32 262 0 0.105044f
c33 258 0 2.75911f
c34 257 0 0.105044f
c35 173 0 2.75911f
c36 172 0 0.105044f
c37 168 0 2.75911f
c38 167 0 0.105044f
c39 83 0 2.75911f
c40 82 0 0.105044f
c41 78 0 2.75911f
c42 77 0 0.105044f
r43 454 482 1.5 
r44 448 478 0.08875 
r45 446 448 3 
r46 446 449 0.467805 
r47 445 446 0.290244 
r48 442 474 0.08875 
r49 440 442 3 
r50 440 445 0.341951 
r51 439 440 0.416098 
r52 435 470 0.08875 
r53 433 435 3 
r54 433 439 0.323902 
r55 432 433 0.434146 
r56 429 466 0.08875 
r57 427 429 3 
r58 427 432 0.32 
r59 426 427 0.438049 
r60 420 422 3 
r61 420 426 0.322439 
r62 419 420 0.43561 
r63 416 419 0.758049 
r64 449 409 0.055122 
r65 400 478 3 
r66 396 398 1.5 
r67 395 482 0.0461538 
r68 393 395 1.5 
r69 393 396 0.9184 
r70 392 400 0.0219866 
r71 392 393 3.56608 
r72 390 474 3 
r73 386 470 3 
r74 386 390 0.627458 
r75 383 466 3 
r76 383 386 0.637288 
r77 422 381 0.08875 
r78 379 381 3 
r79 379 383 0.641695 
r80 378 400 0.02276 
r81 378 390 0.489492 
r82 377 398 0.232258 
r83 373 375 3 
r84 372 377 0.0446983 
r85 372 373 0.427742 
r86 371 454 0.115702 
r87 370 454 0.564848 
r88 364 409 2.14706 
r89 363 439 5.05882 
r90 362 439 5.05882 
r91 361 426 5.05882 
r92 360 426 5.05882 
r93 359 416 2.14706 
r94 354 364 4.2601 
r95 354 358 229.95 
r96 349 363 4.2601 
r97 349 352 229.95 
r98 344 362 4.2601 
r99 344 347 229.95 
r100 339 361 4.2601 
r101 339 342 229.95 
r102 334 360 4.2601 
r103 334 337 229.95 
r104 329 359 4.2601 
r105 329 332 229.95 
r106 371 287 0.0954001 
r107 287 282 1.9113 
r108 281 370 0.0954001 
r109 281 282 1.9113 
r110 268 445 5.05882 
r111 267 445 5.05882 
r112 262 268 4.2601 
r113 262 263 229.95 
r114 257 267 4.2601 
r115 257 258 229.95 
r116 178 432 5.05882 
r117 177 432 5.05882 
r118 172 178 4.2601 
r119 172 173 229.95 
r120 167 177 4.2601 
r121 167 168 229.95 
r122 88 419 5.05882 
r123 87 419 5.05882 
r124 82 88 4.2601 
r125 82 83 229.95 
r126 77 87 4.2601 
r127 77 78 229.95 
.ends

.subckt PM_APV0A%AVSSO 175 338 501 540 542 685 690 1125 1128 1131 1134 1137
+ 1140 1143 1197 1212 1218 1221 1227 1233 1293 1311 1316 1322 1330 1334 1338 1342
+ 1346 1350 1360 1375 1400 1416 1428 1455
c0 1457 0 6.72743f
c1 1453 0 159.215f
c2 1442 0 9.11433f
c3 1437 0 9.07603f
c4 1433 0 9.07601f
c5 1428 0 24.5314f
c6 1413 0 9.07577f
c7 1409 0 9.01157f
c8 1407 0 61.3922f
c9 1400 0 2.8988f
c10 1389 0 5.18458f
c11 1379 0 3.22322f
c12 1350 0 9.87004f
c13 1346 0 9.86748f
c14 1342 0 9.87095f
c15 1338 0 9.91901f
c16 1334 0 9.86744f
c17 1330 0 9.94076f
c18 1311 0 14.6162f
c19 1309 0 3.7893f
c20 1301 0 6.77672f
c21 1291 0 0.797243f
c22 1287 0 8.94362f
c23 1282 0 9.48472f
c24 1279 0 11.1869f
c25 1270 0 169.3f
c26 1253 0 5.23069f
c27 1249 0 43.1611f
c28 1240 0 14.5768f
c29 1237 0 1.24167f
c30 1231 0 0.879264f
c31 1230 0 0.280981f
c32 1229 0 0.950524f
c33 1227 0 18.0557f
c34 1218 0 22.8628f
c35 1207 0 0.216073f
c36 1204 0 0.280927f
c37 1203 0 0.200374f
c38 1202 0 29.3116f
c39 1201 0 0.625309f
c40 1200 0 0.255651f
c41 1197 0 0.283235f
c42 1194 0 1.01416f
c43 1175 0 112.23f
c44 1172 0 2.14281f
c45 1169 0 4.96991f
c46 1167 0 0.37809f
c47 1166 0 0.718873f
c48 1165 0 4.97215f
c49 1163 0 0.377963f
c50 1162 0 0.72374f
c51 1158 0 1.62779f
c52 1156 0 1.59568f
c53 1154 0 1.63441f
c54 1152 0 1.60354f
c55 1150 0 1.60178f
c56 1148 0 1.60178f
c57 1146 0 1.60296f
c58 1145 0 1.86605f
c59 1143 0 1.76126f
c60 1140 0 1.74146f
c61 1137 0 1.74146f
c62 1134 0 1.74146f
c63 1131 0 1.74025f
c64 1128 0 1.79124f
c65 1125 0 1.79538f
c66 1120 0 0.624753f
c67 1058 0 7.65314f
c68 1055 0 4.27206f
c69 1054 0 0.437915f
c70 1048 0 0.29225f
c71 1043 0 0.451378f
c72 825 0 1.03745f
c73 823 0 4.86379f
c74 819 0 5.04256f
c75 817 0 7.6034f
c76 814 0 1.76242f
c77 725 0 0.262267f
c78 724 0 5.1641f
c79 690 0 2.45732f
c80 685 0 1.74891f
c81 542 0 2.49084f
c82 532 0 6.75884f
c83 416 0 13.9336f
c84 366 0 13.9336f
c85 253 0 13.9336f
c86 203 0 13.9336f
c87 40 0 13.9336f
c88 18 0 0.351794f
c89 17 0 0.122347f
c90 10 0 0.32855f
c91 9 0 0.122452f
r92 1454 1455 0.000593413 
r93 1453 1454 0.0670029 
r94 1445 1446 0.00252427 
r95 1442 1443 0.107166 
r96 1438 1439 0.013262 
r97 1437 1438 0.107166 
r98 1433 1434 0.107166 
r99 1425 1426 0.00192513 
r100 1424 1425 0.187701 
r101 1423 1424 0.145668 
r102 1422 1423 0.130802 
r103 1421 1422 0.191979 
r104 1420 1421 0.000320856 
r105 1414 1415 0.013262 
r106 1413 1414 0.107166 
r107 1409 1410 0.107166 
r108 1407 1442 0.294973 
r109 1407 1437 0.294973 
r110 1407 1433 0.294973 
r111 1407 1413 0.294973 
r112 1407 1455 0.138219 
r113 1407 1409 0.294973 
r114 1405 1406 0.0109535 
r115 1402 1403 0.0497778 
r116 1401 1402 0.0497778 
r117 1400 1401 0.0339556 
r118 1399 1400 0.0158222 
r119 1397 1399 0.000177778 
r120 1397 1424 0.0714286 
r121 1395 1397 0.0496 
r122 1394 1395 0.0497778 
r123 1393 1394 0.0497778 
r124 1391 1393 0.0551111 
r125 1389 1390 0.0889242 
r126 1388 1389 0.0889242 
r127 1387 1388 0.0889242 
r128 1385 1387 0.0228662 
r129 1385 1422 0.0714286 
r130 1383 1385 0.066058 
r131 1382 1383 0.0889242 
r132 1381 1382 0.0889242 
r133 1379 1426 0.136364 
r134 1373 1375 0.0102752 
r135 1373 1446 0.0638298 
r136 1360 1439 0.130435 
r137 1322 1415 0.130435 
r138 1314 1316 0.00237443 
r139 1314 1406 0.0638298 
r140 1309 1421 0.136364 
r141 1301 1445 0.0767961 
r142 1291 1293 0.259 
r143 1285 1287 1.5 
r144 1282 1285 3.48222 
r145 1282 1425 0.6 
r146 1279 1451 0.00695241 
r147 1277 1279 0.0288462 
r148 1275 1277 0.109205 
r149 1275 1423 0.0190476 
r150 1270 1272 0.0222222 
r151 1270 1275 0.0429678 
r152 1268 1442 0.0292683 
r153 1264 1437 0.0292683 
r154 1264 1268 0.029226 
r155 1261 1433 0.0292683 
r156 1261 1264 0.029226 
r157 1257 1413 0.0292683 
r158 1254 1409 0.0292683 
r159 1254 1257 0.029226 
r160 1253 1405 0.0737408 
r161 1251 1253 0.0350877 
r162 1251 1254 0.0256037 
r163 1250 1251 0.0077709 
r164 1249 1268 0.0342879 
r165 1245 1453 0.00162999 
r166 1240 1457 0.000660677 
r167 1240 1245 0.0360262 
r168 1231 1233 0.286 
r169 1230 1237 0.0592597 
r170 1229 1230 0.110175 
r171 1225 1227 0.00282778 
r172 1224 1225 0.355222 
r173 1221 1224 0.00305556 
r174 1217 1218 0.000729721 
r175 1216 1217 0.0415518 
r176 1211 1287 3.15259 
r177 1209 1446 0.259029 
r178 1207 1301 0.179515 
r179 1205 1406 0.256919 
r180 1407 1204 0.0857143 
r181 1203 1253 0.180636 
r182 1203 1204 0.0418905 
r183 1202 1443 0.397647 
r184 1202 1439 0.384385 
r185 1202 1434 0.397647 
r186 1202 1415 0.384385 
r187 1202 1410 0.397647 
r188 1202 1272 0.0817321 
r189 1209 1201 0.0420413 
r190 1201 1202 0.0699429 
r191 1207 1200 0.0420413 
r192 1407 1200 0.0809143 
r193 1195 1197 3 
r194 1194 1211 0.0447175 
r195 1194 1195 0.193571 
r196 1192 1350 0.0072093 
r197 1190 1192 0.0566038 
r198 1189 1346 0.0072093 
r199 1187 1189 0.0566038 
r200 1187 1190 0.0171733 
r201 1186 1342 0.0072093 
r202 1184 1186 0.0566038 
r203 1184 1187 0.0171733 
r204 1183 1338 0.0072093 
r205 1181 1183 0.0566038 
r206 1181 1184 0.0171733 
r207 1180 1334 0.0072093 
r208 1178 1180 0.0566038 
r209 1178 1181 0.0171733 
r210 1177 1330 0.0072093 
r211 1175 1177 0.0566038 
r212 1175 1178 0.0171733 
r213 1451 1175 0.00851567 
r214 1205 1172 0.0418905 
r215 1172 1202 0.0651429 
r216 1168 1375 0.230275 
r217 1168 1169 0.0861375 
r218 1166 1311 0.211193 
r219 1166 1167 0.0861375 
r220 1164 1316 0.229041 
r221 1164 1165 0.0863581 
r222 1162 1311 0.210046 
r223 1162 1163 0.0863581 
r224 1158 1403 0.02 
r225 1158 1400 0.30632 
r226 1156 1402 0.02 
r227 1156 1400 0.30632 
r228 1154 1401 0.02 
r229 1154 1400 0.30632 
r230 1152 1399 0.02 
r231 1152 1400 0.30632 
r232 1150 1395 0.02 
r233 1150 1400 0.30632 
r234 1148 1394 0.02 
r235 1148 1400 0.30632 
r236 1146 1393 0.02 
r237 1146 1400 0.30632 
r238 1145 1391 0.02 
r239 1390 1143 0.35928 
r240 1389 1140 0.35928 
r241 1388 1137 0.35928 
r242 1387 1134 0.35928 
r243 1130 1383 0.0204049 
r244 1130 1131 0.35288 
r245 1127 1382 0.0204049 
r246 1127 1128 0.35288 
r247 1124 1381 0.0204049 
r248 1124 1125 0.35288 
r249 1121 1123 0.0899598 
r250 1120 1381 0.0158793 
r251 1120 1123 0.0738956 
r252 1058 1311 0.126 
r253 1055 1311 0.126 
r254 1054 1379 0.125627 
r255 1053 1379 0.329541 
r256 1051 1145 0.5605 
r257 1050 1123 0.02 
r258 1049 1121 0.02 
r259 1047 1311 0.128 
r260 1046 1311 0.128 
r261 1043 1309 0.126361 
r262 1042 1048 0.0705934 
r263 1042 1309 0.328807 
r264 1054 830 0.0923344 
r265 1043 829 0.0923344 
r266 824 825 0.0551111 
r267 823 1403 0.00888889 
r268 823 824 0.0408889 
r269 820 829 0.0221996 
r270 820 821 1.28311 
r271 819 830 0.0221996 
r272 819 821 1.31511 
r273 1048 817 5.846 
r274 817 1053 0.0705934 
r275 814 825 0.02 
r276 737 814 0.5605 
r277 733 824 0.02 
r278 733 1400 0.30632 
r279 1051 725 0.0446983 
r280 724 737 0.0446983 
r281 724 725 1.21 
r282 1049 690 0.35928 
r283 1050 685 0.35928 
r284 542 1301 0.0359281 
r285 542 1249 0.0315365 
r286 542 1217 0.0378788 
r287 541 1216 0.0392177 
r288 1212 541 0.00185957 
r289 540 1229 0.0739856 
r290 540 1250 0.0272374 
r291 540 541 0.0378788 
r292 1293 538 0.396 
r293 538 1225 0.357143 
r294 537 1428 0.00544385 
r295 1426 537 0.0106952 
r296 1291 537 1 
r297 534 1261 0.00148607 
r298 1257 534 0.0277399 
r299 534 1216 0.0016835 
r300 1237 532 1.54097 
r301 532 1420 0.666667 
r302 1233 530 0.357 
r303 530 1224 0.357143 
r304 529 1420 0.0147594 
r305 1416 529 0.00588235 
r306 1231 529 1 
r307 1457 515 0.0513311 
r308 512 515 0.0022831 
r309 1245 512 0.0666361 
r310 512 1454 0.00547945 
r311 1443 501 0.130435 
r312 1360 416 0.00313778 
r313 1438 416 0.0652174 
r314 501 406 0.0031351 
r315 1443 406 0.0652174 
r316 366 501 0.00314046 
r317 1443 366 0.0652174 
r318 356 1373 0.00238532 
r319 1311 356 0.013211 
r320 1445 356 0.0652174 
r321 1434 338 0.130435 
r322 1322 253 0.00313778 
r323 1414 253 0.0652174 
r324 338 243 0.0031351 
r325 1434 243 0.0652174 
r326 203 338 0.00314046 
r327 1434 203 0.0652174 
r328 193 1360 0.00313778 
r329 1438 193 0.0652174 
r330 1410 175 0.130435 
r331 90 1314 0.0102283 
r332 1311 90 0.0131507 
r333 1405 90 0.0652174 
r334 175 80 0.0031351 
r335 1410 80 0.0652174 
r336 40 175 0.00314046 
r337 1410 40 0.0652174 
r338 30 1322 0.00313778 
r339 1414 30 0.0652174 
r340 18 1169 0.132033 
r341 1058 18 0.0473573 
r342 17 1167 0.250407 
r343 17 1055 0.0473573 
r344 10 1165 0.132033 
r345 1047 10 0.0473573 
r346 9 1163 0.250407 
r347 9 1046 0.0473573 
.ends

.subckt PM_APV0A%noxref_3 8 15
c0 14 0 0.653349f
c1 13 0 0.322362f
c2 8 0 0.284394f
r3 14 16 0.02 
r4 13 15 0.0300645 
r5 13 14 0.232258 
r6 16 8 0.0278652 
.ends

.subckt PM_APV0A%U19_U31_r2 413 415 417 419 421 423 425 427 429 431 433 436 465
c0 529 0 0.430177f
c1 528 0 0.430177f
c2 527 0 0.430177f
c3 526 0 0.430177f
c4 525 0 0.430177f
c5 524 0 0.439589f
c6 523 0 0.431045f
c7 522 0 0.430177f
c8 521 0 0.430177f
c9 520 0 0.430177f
c10 517 0 7.71666f
c11 513 0 0.455942f
c12 512 0 0.455942f
c13 511 0 0.455942f
c14 510 0 0.455942f
c15 509 0 0.455942f
c16 508 0 0.467487f
c17 507 0 0.45681f
c18 506 0 0.455942f
c19 505 0 0.455942f
c20 504 0 0.455942f
c21 501 0 8.06551f
c22 490 0 0.302739f
c23 484 0 12.7675f
c24 482 0 0.259258f
c25 481 0 0.0919639f
c26 478 0 1.12043f
c27 473 0 1.18505f
c28 468 0 2.16724f
c29 465 0 0.268174f
c30 412 0 4.06306f
c31 400 0 0.110377f
c32 308 0 0.430177f
c33 305 0 0.427815f
c34 277 0 3.8463f
c35 275 0 0.11445f
c36 241 0 3.8463f
c37 239 0 0.11445f
c38 223 0 3.8463f
c39 221 0 0.11445f
c40 187 0 3.8463f
c41 185 0 0.11445f
c42 169 0 3.84918f
c43 167 0 0.115202f
c44 133 0 3.82255f
c45 131 0 0.11445f
c46 115 0 3.84622f
c47 113 0 0.11445f
c48 79 0 3.84628f
c49 77 0 0.11445f
c50 61 0 3.84628f
c51 59 0 0.11445f
c52 25 0 3.84548f
c53 23 0 0.11445f
c54 7 0 4.07844f
c55 5 0 0.129638f
r56 528 529 0.35522 
r57 527 528 0.353073 
r58 526 527 0.35522 
r59 525 526 0.353073 
r60 524 525 0.35522 
r61 523 524 0.353073 
r62 522 523 0.35522 
r63 521 522 0.353073 
r64 520 521 0.35522 
r65 519 520 0.211707 
r66 517 519 0.141366 
r67 512 513 0.277073 
r68 511 512 0.43122 
r69 510 511 0.277073 
r70 509 510 0.43122 
r71 508 509 0.277073 
r72 507 508 0.43122 
r73 506 507 0.277073 
r74 505 506 0.43122 
r75 504 505 0.277073 
r76 503 504 0.22439 
r77 501 503 0.206829 
r78 486 488 3 
r79 486 490 0.00105263 
r80 488 484 5.13818 
r81 482 484 3 
r82 481 482 0.0381935 
r83 478 519 1.5 
r84 476 481 0.0450727 
r85 476 478 0.7 
r86 473 503 2 
r87 471 490 0.02 
r88 471 473 0.686061 
r89 468 515 3 
r90 463 465 3 
r91 463 468 0.369778 
r92 412 436 304.95 
r93 400 436 304.95 
r94 529 308 0.353073 
r95 305 515 0.0478049 
r96 513 305 0.43122 
r97 296 308 3.31176 
r98 412 296 4.2601 
r99 294 305 3.31176 
r100 400 294 4.2601 
r101 278 529 3.31176 
r102 277 433 304.95 
r103 277 278 4.2601 
r104 276 513 3.31176 
r105 275 433 304.95 
r106 275 276 4.2601 
r107 242 528 3.31176 
r108 241 431 304.95 
r109 241 242 4.2601 
r110 240 512 3.31176 
r111 239 431 304.95 
r112 239 240 4.2601 
r113 224 527 3.31176 
r114 223 429 304.95 
r115 223 224 4.2601 
r116 222 511 3.31176 
r117 221 429 304.95 
r118 221 222 4.2601 
r119 188 526 3.31176 
r120 187 427 304.95 
r121 187 188 4.2601 
r122 186 510 3.31176 
r123 185 427 304.95 
r124 185 186 4.2601 
r125 170 525 3.31176 
r126 169 425 304.95 
r127 169 170 4.2601 
r128 168 509 3.31176 
r129 167 425 304.95 
r130 167 168 4.2601 
r131 134 524 3.31176 
r132 133 423 304.95 
r133 133 134 4.2601 
r134 132 508 3.31176 
r135 131 423 304.95 
r136 131 132 4.2601 
r137 116 523 3.31176 
r138 115 421 304.95 
r139 115 116 4.2601 
r140 114 507 3.31176 
r141 113 421 304.95 
r142 113 114 4.2601 
r143 80 522 3.31176 
r144 79 419 304.95 
r145 79 80 4.2601 
r146 78 506 3.31176 
r147 77 419 304.95 
r148 77 78 4.2601 
r149 62 521 3.31176 
r150 61 417 304.95 
r151 61 62 4.2601 
r152 60 505 3.31176 
r153 59 417 304.95 
r154 59 60 4.2601 
r155 26 520 3.31176 
r156 25 415 304.95 
r157 25 26 4.2601 
r158 24 504 3.31176 
r159 23 415 304.95 
r160 23 24 4.2601 
r161 8 517 3.31176 
r162 7 413 304.95 
r163 7 8 4.2601 
r164 6 501 3.31176 
r165 5 413 304.95 
r166 5 6 4.2601 
.ends

.subckt PM_APV0A%noxref_5 8 15
c0 14 0 0.647757f
c1 13 0 0.322112f
c2 8 0 0.284184f
r3 14 16 0.02 
r4 13 15 0.0300645 
r5 13 14 0.232258 
r6 16 8 0.0278652 
.ends

.subckt PM_APV0A%AVDDO 94 170 294 370 494 570 1589 1892 1901 1939 1944 1947
+ 1953 1956 1963 1967 2000 2039 2056 2062 2078 2087 2122 2131 2140 2149 2158 2167
+ 2176 2190
c0 2292 0 10.9244f
c1 2287 0 4.21063f
c2 2278 0 7.70034f
c3 2274 0 10.9709f
c4 2270 0 10.9675f
c5 2266 0 10.9671f
c6 2262 0 10.9328f
c7 2253 0 8.06676f
c8 2248 0 3.9233f
c9 2244 0 10.8943f
c10 2237 0 1.22117f
c11 2232 0 1.21231f
c12 2227 0 1.21874f
c13 2223 0 1.1981f
c14 2221 0 0.424077f
c15 2218 0 1.02516f
c16 2214 0 0.233305f
c17 2209 0 0.422987f
c18 2190 0 5.70499e-19
c19 2181 0 7.36278f
c20 2178 0 9.35743f
c21 2169 0 15.6198f
c22 2160 0 15.6198f
c23 2151 0 15.6254f
c24 2142 0 15.6197f
c25 2133 0 15.6198f
c26 2124 0 9.62987f
c27 2092 0 6.61415f
c28 2087 0 0.254587f
c29 2072 0 40.123f
c30 2070 0 8.51917f
c31 2049 0 0.283135f
c32 2046 0 50.2564f
c33 2044 0 3.3752f
c34 2029 0 30.139f
c35 2024 0 8.3767f
c36 2003 0 37.8893f
c37 2000 0 57.1721f
c38 1973 0 4.27915f
c39 1971 0 8.33584f
c40 1963 0 2.55096f
c41 1953 0 2.23482f
c42 1944 0 18.409f
c43 1916 0 0.458027f
c44 1901 0 45.2682f
c45 1899 0 1.35468f
c46 1883 0 0.421358f
c47 1878 0 0.431675f
c48 1872 0 0.411214f
c49 1869 0 7.92102f
c50 1830 0 2.54739f
c51 1829 0 9.70899f
c52 1827 0 0.0815817f
c53 1589 0 18.9592f
c54 1532 0 6.7272f
c55 1520 0 0.564088f
c56 1496 0 0.0828905f
c57 1495 0 2.49217f
c58 665 0 0.97969f
c59 645 0 0.618379f
c60 644 0 0.458959f
c61 642 0 0.439635f
c62 634 0 0.371343f
c63 632 0 0.42527f
c64 570 0 3.29769f
c65 514 0 6.97986f
c66 494 0 3.2975f
c67 438 0 6.96328f
c68 370 0 3.29769f
c69 314 0 6.97986f
c70 294 0 3.29769f
c71 238 0 6.97986f
c72 170 0 3.29752f
c73 114 0 6.94795f
c74 94 0 3.29769f
c75 38 0 6.9691f
c76 21 0 0.152029f
c77 20 0 6.8458f
c78 11 0 0.152029f
c79 10 0 6.8846f
r80 2287 2289 0.695327 
r81 2280 2281 0.279231 
r82 2278 2280 0.255385 
r83 2255 2256 0.273962 
r84 2253 2255 0.250566 
r85 2248 2250 0.695327 
r86 2238 2239 0.000842105 
r87 2233 2234 0.000280702 
r88 2228 2229 0.000561404 
r89 2218 2233 0.0185263 
r90 2218 2232 0.0456661 
r91 2218 2228 0.0165614 
r92 2218 2227 0.0456661 
r93 2218 2238 0.0176842 
r94 2218 2237 0.0451047 
r95 2218 2224 0.0162807 
r96 2218 2223 0.042017 
r97 2215 2218 0.164 
r98 2214 2215 0.1908 
r99 2218 2214 0.0228 
r100 2210 2218 0.16392 
r101 2239 2209 0.0254556 
r102 2209 2210 0.1612 
r103 2192 2194 0.00598131 
r104 2192 2289 0.109091 
r105 2190 2206 0.159252 
r106 2190 2194 0.11215 
r107 2190 2192 0.153271 
r108 2181 2190 0.159252 
r109 2176 2178 0.793846 
r110 2173 2176 0.842637 
r111 2167 2169 0.55145 
r112 2164 2167 0.585344 
r113 2158 2160 0.55145 
r114 2155 2158 0.585344 
r115 2149 2151 0.55145 
r116 2146 2149 0.585344 
r117 2142 2281 1.5 
r118 2140 2142 0.55145 
r119 2137 2140 0.585344 
r120 2137 2256 1.5 
r121 2133 2280 1.5 
r122 2131 2133 0.55145 
r123 2128 2131 0.585344 
r124 2128 2255 1.5 
r125 2124 2278 1.5 
r126 2122 2124 0.793846 
r127 2119 2122 0.842637 
r128 2119 2253 1.5 
r129 2190 2117 0.159252 
r130 2105 2190 0.11215 
r131 2103 2105 0.00598131 
r132 2190 2103 0.153271 
r133 2103 2250 0.109091 
r134 2092 2190 0.159252 
r135 2081 2281 1.5 
r136 2078 2081 0.0054083 
r137 2077 2078 0.00481928 
r138 2075 2077 0.00562249 
r139 2075 2287 0.25 
r140 2073 2075 0.00128514 
r141 2070 2073 0.0217403 
r142 2070 2072 0.0578886 
r143 2070 2280 1.5 
r144 2244 2068 0.201156 
r145 2065 2066 0.00490432 
r146 2058 2256 1.5 
r147 2055 2058 0.00925753 
r148 2055 2056 0.02 
r149 2054 2055 0.000963211 
r150 2052 2054 0.00561873 
r151 2052 2248 0.25 
r152 2050 2052 0.00128428 
r153 2087 2049 3 
r154 2047 2049 3 
r155 2047 2050 0.0202274 
r156 2044 2047 0.00149833 
r157 2044 2046 0.103533 
r158 2044 2255 1.5 
r159 2039 2041 0.188 
r160 2035 2072 1.11117 
r161 2032 2072 0.0595995 
r162 2032 2278 1.5 
r163 2030 2050 0.02 
r164 2030 2031 0.082847 
r165 2029 2073 0.02 
r166 2029 2031 0.0837485 
r167 2026 2046 0.0585539 
r168 2026 2253 1.5 
r169 2023 2024 0.652814 
r170 2022 2023 0.656277 
r171 2021 2022 0.654199 
r172 2020 2021 0.482771 
r173 2292 2019 0.201156 
r174 2017 2019 0.133333 
r175 2274 2016 0.201156 
r176 2014 2016 0.133333 
r177 2014 2017 0.0901748 
r178 2270 2013 0.179111 
r179 2011 2013 0.133333 
r180 2011 2014 0.092393 
r181 2266 2010 0.201156 
r182 2008 2010 0.133333 
r183 2008 2011 0.089789 
r184 2262 2007 0.201156 
r185 2005 2007 0.133333 
r186 2005 2008 0.0926341 
r187 2020 2005 0.0630259 
r188 2003 2035 0.047369 
r189 2003 2017 0.00202532 
r190 2289 1998 0.834393 
r191 1996 1998 0.2 
r192 2151 1995 1.5 
r193 2281 1995 0.279231 
r194 2160 1993 1.5 
r195 1995 1993 0.279231 
r196 2169 1991 1.5 
r197 1993 1991 0.279231 
r198 2178 1989 1.5 
r199 1991 1989 0.279231 
r200 1987 1989 1.5 
r201 1987 1991 1.5 
r202 1987 1993 1.5 
r203 1987 1995 1.5 
r204 1987 1996 0.0103321 
r205 2146 1985 1.5 
r206 2256 1985 0.273962 
r207 2155 1983 1.5 
r208 1985 1983 0.273962 
r209 2164 1981 1.5 
r210 1983 1981 0.273962 
r211 2173 1979 1.5 
r212 1981 1979 0.273962 
r213 1977 1979 1.5 
r214 1977 1981 1.5 
r215 1977 1983 1.5 
r216 1977 1985 1.5 
r217 2250 1976 0.834393 
r218 1974 1976 0.2 
r219 1974 1977 0.0119852 
r220 1973 2066 0.00756545 
r221 1973 1974 0.0105092 
r222 1971 2046 0.702896 
r223 1967 1969 0.188 
r224 1961 1963 0.000994191 
r225 1960 1961 0.0533278 
r226 1959 1960 0.0510705 
r227 1956 1959 0.00248963 
r228 2031 1951 0.00284091 
r229 2041 1943 0.5 
r230 1943 1944 0.0039415 
r231 2024 1931 1.5 
r232 1931 2238 3 
r233 1925 2234 3 
r234 2229 1916 3 
r235 1912 2224 3 
r236 1900 1901 0.00532381 
r237 2207 1899 0.196552 
r238 1897 1899 0.375 
r239 1897 1900 0.0846667 
r240 1896 1897 0.511095 
r241 1895 1896 0.0127143 
r242 1892 1895 0.0052381 
r243 1888 2181 0.19514 
r244 2237 1887 0.1596 
r245 2218 1887 0.164 
r246 1884 2218 0.164 
r247 2234 1883 0.0251749 
r248 1883 1884 0.1612 
r249 2232 1881 0.1588 
r250 2218 1881 0.16408 
r251 1879 2218 0.16392 
r252 2229 1878 0.0296661 
r253 1878 1879 0.1572 
r254 2227 1876 0.1588 
r255 2218 1876 0.164 
r256 1873 2218 0.164 
r257 2224 1872 0.0279819 
r258 1872 1873 0.1608 
r259 1869 1888 0.045921 
r260 1869 2190 2.191 
r261 2223 1868 0.164 
r262 2218 1868 0.16408 
r263 2221 1866 0.16 
r264 2218 1866 0.16392 
r265 1861 2218 0.164 
r266 1830 2218 0.2648 
r267 1829 2218 0.2648 
r268 1827 2190 2.181 
r269 1824 1861 0.2664 
r270 1823 2218 0.2664 
r271 1589 2207 3.53933 
r272 1548 1549 0.209032 
r273 1534 1536 0.0806452 
r274 1549 1532 0.104516 
r275 1532 1548 0.104516 
r276 1532 1536 0.104516 
r277 1532 1534 0.023871 
r278 1534 1520 0.75 
r279 2066 1520 0.75 
r280 1513 2206 0.19514 
r281 1496 2190 2.11181 
r282 1495 1513 0.0456322 
r283 1495 2190 2.10217 
r284 1487 2117 0.19514 
r285 1487 1496 0.0456322 
r286 1486 2092 0.19514 
r287 1486 1827 0.045921 
r288 669 1896 0.02 
r289 669 670 0.876213 
r290 665 2039 0.202 
r291 665 1900 1.5 
r292 663 2065 0.00192379 
r293 2062 663 0.00406435 
r294 663 1959 0.05 
r295 661 1987 0.0565018 
r296 1977 661 0.0534022 
r297 661 1960 0.00189394 
r298 659 2000 0.00176827 
r299 1996 659 0.0280148 
r300 659 1961 0.05 
r301 670 658 0.723314 
r302 2065 658 0.2 
r303 656 1951 0.0641088 
r304 1947 656 0.00116818 
r305 2054 656 0.078125 
r306 652 1953 0.0030997 
r307 1951 652 0.0625378 
r308 2077 652 0.078125 
r309 2058 649 0.000481605 
r310 649 670 0.2 
r311 648 1943 0.467422 
r312 1939 648 0.00394881 
r313 1969 648 0.5 
r314 645 1967 0.202 
r315 645 1895 1.5 
r316 644 1931 0.033985 
r317 2239 644 3 
r318 2023 642 1.5 
r319 642 1925 0.0331343 
r320 2233 642 3 
r321 1906 635 3 
r322 635 2221 0.0272817 
r323 2218 635 0.0173463 
r324 635 634 3 
r325 634 1906 0.0363899 
r326 633 2068 0.133333 
r327 633 1971 0.0216413 
r328 633 2020 0.0233936 
r329 633 634 1.5 
r330 2224 632 3 
r331 632 1912 0.0353125 
r332 2021 632 1.5 
r333 630 2228 3 
r334 1916 630 0.032518 
r335 2022 630 1.5 
r336 570 528 0.00249413 
r337 2274 528 0.0425532 
r338 514 570 0.00249413 
r339 2274 514 0.0425532 
r340 494 452 0.00249413 
r341 2292 452 0.0425532 
r342 438 494 0.00249413 
r343 2292 438 0.0425532 
r344 370 328 0.00249413 
r345 2266 328 0.0425532 
r346 314 370 0.00249413 
r347 2266 314 0.0425532 
r348 294 252 0.00249413 
r349 2270 252 0.0425532 
r350 238 294 0.00249413 
r351 2270 238 0.0425532 
r352 170 128 0.00249413 
r353 2244 128 0.0425532 
r354 114 170 0.00249413 
r355 2244 114 0.0425532 
r356 94 52 0.00249413 
r357 2262 52 0.0425532 
r358 38 94 0.00249413 
r359 2262 38 0.0425532 
r360 1830 21 0.0447329 
r361 21 2218 1.51848 
r362 20 1829 0.0447329 
r363 20 2218 1.51162 
r364 1824 11 0.0447329 
r365 11 2218 1.51848 
r366 10 1823 0.0447329 
r367 10 2218 1.51162 
.ends

.subckt PM_APV0A%AVSS 601 616 619 625 629 647
c0 645 0 0.519658f
c1 640 0 14.1512f
c2 634 0 14.2185f
c3 627 0 0.827673f
c4 625 0 48.4144f
c5 616 0 8.00644f
c6 615 0 22.8273f
c7 598 0 9.77848f
c8 550 0 0.400941f
c9 548 0 0.421565f
c10 542 0 0.108058f
c11 541 0 0.0884505f
c12 540 0 0.142394f
c13 539 0 0.116556f
c14 511 0 6.16816f
c15 507 0 1.04043f
c16 505 0 0.915173f
c17 477 0 6.47656f
c18 473 0 7.35578f
c19 442 0 6.88443f
c20 439 0 0.122725f
c21 438 0 0.708936f
c22 437 0 0.110891f
c23 436 0 0.821102f
c24 435 0 6.1926f
c25 23 0 7.50393f
r26 655 656 0.914495 
r27 645 647 0.0755 
r28 640 643 2.00436 
r29 640 656 0.75 
r30 634 637 1.95254 
r31 634 655 0.75 
r32 627 629 0.132 
r33 623 625 0.00164455 
r34 622 623 0.195027 
r35 619 622 0.0016476 
r36 615 656 0.174679 
r37 653 611 2.80195 
r38 606 653 0.842927 
r39 598 611 0.546341 
r40 597 606 0.522927 
r41 550 611 2 
r42 643 550 2 
r43 548 606 2 
r44 637 548 2 
r45 598 541 0.0420172 
r46 597 539 0.0517786 
r47 653 538 0.149647 
r48 511 653 0.149647 
r49 510 538 0.490353 
r50 509 511 0.487529 
r51 508 542 0.0412274 
r52 507 510 0.0447003 
r53 507 508 0.611429 
r54 506 541 0.0420172 
r55 505 509 0.0447171 
r56 505 506 0.626341 
r57 653 504 0.159252 
r58 477 653 0.159252 
r59 476 542 0.00319614 
r60 476 504 0.349159 
r61 475 541 0.00265108 
r62 475 477 0.346916 
r63 474 540 0.0508751 
r64 473 542 0.0412274 
r65 473 474 4.6019 
r66 653 469 0.122553 
r67 442 653 0.122553 
r68 441 540 0.00286573 
r69 441 469 0.263262 
r70 440 539 0.00337442 
r71 440 442 0.26156 
r72 438 540 0.0508751 
r73 438 439 0.579048 
r74 436 539 0.0517786 
r75 436 437 0.593171 
r76 435 439 0.0447003 
r77 434 437 0.0447171 
r78 434 435 4.69365 
r79 647 31 0.0765 
r80 31 623 0.357143 
r81 30 616 0.00437886 
r82 30 615 0.0919537 
r83 645 30 0.857143 
r84 629 27 0.008 
r85 27 622 0.357143 
r86 627 26 0.857143 
r87 24 655 0.172599 
r88 24 26 0.0340229 
r89 23 601 0.0173663 
r90 23 26 0.0166651 
.ends

.subckt PM_APV0A%VSS 84 89 260 262 264 266 268 270 272 277 292 309 313 320
c0 320 0 62.1517f
c1 309 0 1.02325f
c2 306 0 0.595363f
c3 296 0 0.623756f
c4 291 0 1.3835f
c5 283 0 5.18911f
c6 277 0 1.24866f
c7 272 0 2.09767f
c8 270 0 2.09431f
c9 268 0 2.04432f
c10 266 0 2.06424f
c11 264 0 2.06424f
c12 262 0 2.06424f
c13 260 0 2.07949f
c14 257 0 1.90897f
c15 255 0 1.90681f
c16 253 0 1.90681f
c17 251 0 1.90797f
c18 249 0 1.9409f
c19 247 0 1.90223f
c20 245 0 1.91376f
c21 236 0 2.38912f
c22 181 0 28.3244f
c23 176 0 5.50182f
c24 174 0 5.36869f
c25 163 0 6.29415f
c26 89 0 0.145467f
c27 84 0 0.145467f
c28 27 0 0.23417f
c29 26 0 4.88125f
r30 317 318 0.0877765 
r31 316 317 0.0299765 
r32 313 316 0.00127059 
r33 309 311 0.309 
r34 303 306 0.00678414 
r35 303 318 0.3125 
r36 299 317 0.3125 
r37 296 299 0.000382775 
r38 291 292 0.02 
r39 287 288 0.300779 
r40 282 283 0.0551111 
r41 281 282 0.0497778 
r42 280 281 0.0497778 
r43 277 278 0.0158222 
r44 276 277 0.0339556 
r45 275 276 0.0497778 
r46 274 275 0.0497778 
r47 259 283 0.02 
r48 257 282 0.02 
r49 257 277 0.30632 
r50 255 281 0.02 
r51 255 277 0.30632 
r52 253 280 0.02 
r53 253 277 0.30632 
r54 251 278 0.02 
r55 251 277 0.30632 
r56 249 276 0.02 
r57 249 277 0.30632 
r58 247 275 0.02 
r59 247 277 0.30632 
r60 245 274 0.02 
r61 245 277 0.30632 
r62 236 259 0.5605 
r63 192 193 0.0889242 
r64 191 192 0.0889242 
r65 189 191 0.0825725 
r66 189 288 0.0833333 
r67 187 266 0.35928 
r68 187 189 0.00635173 
r69 186 264 0.35928 
r70 186 187 0.0889242 
r71 185 262 0.35928 
r72 185 186 0.0889242 
r73 184 260 0.35928 
r74 184 185 0.0889242 
r75 182 280 0.0110222 
r76 278 182 0.0387556 
r77 182 287 0.0833333 
r78 288 181 0.0831169 
r79 306 181 0.4 
r80 179 287 0.100974 
r81 296 179 0.4 
r82 175 176 0.0899598 
r83 174 193 0.0158793 
r84 174 175 0.0738956 
r85 173 272 0.35288 
r86 173 193 0.0204049 
r87 172 270 0.35288 
r88 172 192 0.0204049 
r89 171 268 0.35288 
r90 171 191 0.0204049 
r91 164 166 0.0551111 
r92 163 274 0.00888889 
r93 163 166 0.0408889 
r94 162 176 0.02 
r95 161 175 0.02 
r96 158 164 0.02 
r97 162 89 0.35928 
r98 161 84 0.35928 
r99 39 158 0.5605 
r100 35 166 0.02 
r101 35 277 0.30632 
r102 236 27 0.0446983 
r103 26 39 0.0446983 
r104 26 27 1.21 
r105 4 320 0.00126824 
r106 318 4 0.0326471 
r107 311 4 0.25 
r108 291 1 0.297 
r109 1 316 0.25 
.ends

.subckt PM_APV0A%AVDD 17 22 25 31 33 39
c0 39 0 2.75544f
c1 33 0 1.68837f
c2 31 0 103.144f
c3 22 0 51.8047f
r4 29 31 0.00069414 
r5 28 29 0.0822923 
r6 25 28 0.000721185 
r7 7 43 0.141 
r8 39 7 0.2255 
r9 7 29 0.0925926 
r10 6 22 0.00414572 
r11 43 6 0.6 
r12 3 37 0.105 
r13 33 3 0.2245 
r14 3 28 0.0925926 
r15 2 6 0.465355 
r16 17 2 0.00408015 
r17 37 2 0.6 
.ends

