* File: pc3d11.dist.sp.pex
* Created: Sun Jul  4 12:27:41 2010
* Program "Calibre xRC"
* Version "v2008.4_19.14"
* Nominal Temperature: 27C
* Circuit Temperature: 27C
* 
.subckt PM_PC3D11%VSS 813 884 906 945 958 970 973 979
c0 979 0 88.7496f
c1 970 0 47.5173f
c2 957 0 54.812f
c3 955 0 2.3768f
c4 942 0 0.609139f
c5 923 0 2.51215f
c6 917 0 12.3922f
c7 916 0 1.77825f
c8 903 0 1.88751f
c9 895 0 14.8919f
c10 881 0 1.45648f
c11 878 0 2.50793f
c12 841 0 25.3375f
c13 828 0 0.0691108f
c14 827 0 0.0657389f
c15 826 0 5.86662f
c16 825 0 0.745402f
c17 824 0 0.269279f
c18 821 0 0.0372194f
c19 813 0 2.07055f
c20 811 0 6.74818f
c21 810 0 0.218207f
c22 808 0 0.69473f
c23 801 0 8.61447f
c24 799 0 0.255493f
c25 798 0 0.0856199f
c26 797 0 1.18476f
c27 692 0 1.98507f
c28 684 0 1.40824f
c29 682 0 0.184759f
c30 680 0 0.271526f
c31 677 0 25.0969f
c32 672 0 1.0863f
c33 671 0 6.52093f
c34 665 0 2.03682f
c35 661 0 0.135881f
c36 660 0 2.4667f
c37 659 0 0.117466f
c38 658 0 2.25951f
c39 573 0 0.162892f
c40 571 0 0.72248f
c41 569 0 0.203897f
c42 544 0 2.94311f
c43 530 0 3.05953f
c44 528 0 0.031054f
c45 524 0 6.24623f
c46 523 0 0.161087f
c47 508 0 5.68764f
c48 505 0 3.2536f
r49 977 979 0.000702051 
r50 976 977 0.0832563 
r51 973 976 0.000703354 
r52 969 970 0.00318245 
r53 966 967 0.167059 
r54 965 966 0.0632503 
r55 964 965 0.065324 
r56 963 964 0.0141176 
r57 962 963 0.00135593 
r58 955 969 0.461538 
r59 949 966 0.0535714 
r60 947 964 1.5 
r61 947 949 1.612 
r62 942 945 0.045 
r63 942 965 0.666667 
r64 923 962 0.6 
r65 921 957 0.0297924 
r66 921 923 3.23529 
r67 916 957 0.0158586 
r68 916 917 1.0295 
r69 910 969 0.00119641 
r70 967 910 0.110269 
r71 908 910 0.428571 
r72 906 908 0.189 
r73 903 906 0.013 
r74 903 977 0.131579 
r75 899 900 0.570964 
r76 898 899 1.12284 
r77 895 898 0.628223 
r78 895 967 0.3 
r79 888 962 0.0882951 
r80 958 888 0.00438684 
r81 886 888 0.428571 
r82 884 886 0.189 
r83 881 884 0.013 
r84 881 976 0.131579 
r85 951 878 1 
r86 840 875 0.02 
r87 840 841 0.9662 
r88 826 949 2.7305 
r89 826 827 0.0338756 
r90 821 947 1.283 
r91 820 828 0.0338756 
r92 819 827 0.0338756 
r93 816 828 0.00880368 
r94 815 827 0.00880368 
r95 813 870 2.59036 
r96 951 813 1.07807 
r97 816 813 0.88 
r98 815 813 1.064 
r99 812 957 0.0158586 
r100 812 813 1.9975 
r101 811 828 0.0338756 
r102 824 810 0.0632911 
r103 810 808 0.0574488 
r104 807 821 0.0448201 
r105 804 955 1.518 
r106 803 955 0.426 
r107 801 870 1.08482 
r108 799 951 1.06072 
r109 798 917 0.0425 
r110 797 798 0.0448201 
r111 797 807 2.13041 
r112 811 694 0.592 
r113 813 694 1.93 
r114 692 863 3 
r115 863 684 0.29193 
r116 899 684 1.5 
r117 694 682 3 
r118 898 682 3 
r119 680 870 3 
r120 900 680 3 
r121 677 892 1.1314 
r122 677 963 0.125 
r123 676 878 0.0075 
r124 875 676 0.056 
r125 892 676 0.24 
r126 674 825 0.102486 
r127 674 824 0.0155975 
r128 841 674 1 
r129 672 820 0.6415 
r130 804 672 0.0446983 
r131 671 819 0.6415 
r132 803 671 0.0446983 
r133 670 692 0.831219 
r134 669 692 0.572683 
r135 664 665 1.37048 
r136 661 670 0.0448242 
r137 661 662 0.678222 
r138 660 665 0.0447675 
r139 660 662 0.650667 
r140 659 669 0.0446983 
r141 658 664 0.0447067 
r142 658 659 1.45854 
r143 572 573 0.147619 
r144 568 569 0.14988 
r145 801 568 0.0380723 
r146 565 567 0.143333 
r147 799 564 0.0385542 
r148 562 564 0.14506 
r149 813 561 0.159 
r150 544 813 0.159 
r151 543 573 0.02 
r152 543 561 1.247 
r153 542 569 0.02 
r154 542 544 1.243 
r155 813 541 0.192 
r156 539 813 0.192 
r157 538 539 0.342 
r158 813 538 0.192 
r159 536 813 0.192 
r160 535 536 0.342 
r161 813 535 0.192 
r162 533 813 0.192 
r163 532 533 0.342 
r164 813 532 0.192 
r165 530 813 0.192 
r166 529 572 0.02 
r167 529 541 1.214 
r168 528 571 0.04 
r169 528 530 0.243 
r170 526 568 0.02 
r171 526 571 0.938734 
r172 524 572 0.0380952 
r173 524 825 4.80524 
r174 523 808 0.555238 
r175 523 567 0.0380952 
r176 813 519 0.159 
r177 517 813 0.159 
r178 516 517 0.408 
r179 813 516 0.159 
r180 514 813 0.159 
r181 513 514 0.408 
r182 813 513 0.159 
r183 511 813 0.159 
r184 510 511 0.408 
r185 813 510 0.159 
r186 508 813 0.159 
r187 507 567 0.02 
r188 507 519 1.247 
r189 506 564 0.02 
r190 506 508 1.243 
r191 505 565 0.02 
r192 504 562 0.02 
r193 504 505 4.69271 
.ends

.subckt PM_PC3D11%U14_MN4$11_gate 98 103 219 224 340 345 410 415 420 425 430
+ 435 449
c0 612 0 0.264624f
c1 608 0 0.432377f
c2 603 0 0.431723f
c3 598 0 0.431999f
c4 593 0 0.433563f
c5 588 0 0.434391f
c6 576 0 2.53433f
c7 572 0 0.236421f
c8 554 0 0.0501222f
c9 550 0 0.126441f
c10 548 0 1.09628f
c11 543 0 1.10468f
c12 538 0 1.09628f
c13 533 0 1.12251f
c14 529 0 0.847498f
c15 523 0 0.859973f
c16 521 0 0.170165f
c17 519 0 0.402049f
c18 516 0 0.430085f
c19 515 0 0.863899f
c20 514 0 0.804241f
c21 513 0 0.877326f
c22 511 0 0.872867f
c23 505 0 0.156445f
c24 504 0 8.9327f
c25 501 0 7.03755f
c26 499 0 0.14249f
c27 498 0 0.267597f
c28 496 0 0.474738f
c29 492 0 15.6364f
c30 487 0 1.41515f
c31 485 0 0.126896f
c32 480 0 0.113594f
c33 474 0 0.680018f
c34 473 0 0.0631592f
c35 464 0 0.535213f
c36 456 0 0.535717f
c37 450 0 0.300832f
c38 449 0 0.233998f
c39 442 0 0.16744f
c40 441 0 0.607864f
c41 440 0 0.168715f
c42 439 0 0.608092f
c43 438 0 0.169627f
c44 437 0 0.540411f
c45 435 0 3.10111f
c46 430 0 3.04886f
c47 425 0 3.04886f
c48 420 0 3.04886f
c49 415 0 3.04886f
c50 410 0 3.10222f
c51 357 0 0.974632f
c52 345 0 3.04886f
c53 344 0 0.168601f
c54 340 0 3.04886f
c55 339 0 0.169285f
c56 236 0 0.971967f
c57 224 0 3.04886f
c58 223 0 0.168289f
c59 219 0 3.04886f
c60 218 0 0.169346f
c61 115 0 0.975149f
c62 103 0 3.04886f
c63 102 0 0.169399f
c64 98 0 3.04886f
c65 97 0 0.169627f
r66 570 572 6 
r67 556 612 0.00341463 
r68 554 556 3 
r69 554 558 0.0138182 
r70 550 552 0.102703 
r71 547 608 0.00439024 
r72 605 547 0.0512195 
r73 545 547 1.5 
r74 545 548 0.117757 
r75 542 603 0.00195122 
r76 600 542 0.0536585 
r77 540 542 1.5 
r78 540 543 0.118253 
r79 537 598 0.000487805 
r80 595 537 0.055122 
r81 535 537 1.5 
r82 535 538 0.11974 
r83 531 593 0.00292683 
r84 590 531 0.0526829 
r85 529 531 1.5 
r86 529 533 0.0678788 
r87 525 588 0.00536585 
r88 585 525 0.0502439 
r89 523 525 1.5 
r90 523 527 0.0693333 
r91 558 521 0.0697717 
r92 554 519 0.0138182 
r93 518 519 0.141735 
r94 517 550 0.02 
r95 516 521 0.0586021 
r96 516 517 0.36 
r97 545 515 0.0999055 
r98 514 552 0.02 
r99 514 515 1.035 
r100 540 513 0.100897 
r101 548 513 1.437 
r102 535 511 0.0989138 
r103 543 511 1.448 
r104 509 533 0.0200093 
r105 538 509 1.437 
r106 507 527 0.02 
r107 533 507 1.472 
r108 504 518 0.0586021 
r109 504 505 10.913 
r110 501 572 6 
r111 499 501 3.75099 
r112 581 498 0.0521951 
r113 496 498 3 
r114 495 499 0.0509474 
r115 495 496 0.00866667 
r116 494 505 0.0610788 
r117 494 496 0.142 
r118 570 492 15.6586 
r119 490 492 6 
r120 487 490 1.388 
r121 487 576 6 
r122 484 576 3.376 
r123 480 485 0.0933197 
r124 473 484 0.0447517 
r125 485 473 0.157176 
r126 480 449 0.0666667 
r127 442 474 1.85294 
r128 441 464 5.05882 
r129 440 464 5.05882 
r130 439 456 5.05882 
r131 438 456 5.05882 
r132 437 450 1.85294 
r133 432 442 3.88985 
r134 432 435 183.96 
r135 427 441 3.88985 
r136 427 430 183.96 
r137 422 440 3.88985 
r138 422 425 183.96 
r139 417 439 3.88985 
r140 417 420 183.96 
r141 412 438 3.88985 
r142 412 415 183.96 
r143 407 437 3.88985 
r144 407 410 183.96 
r145 350 357 5.05882 
r146 349 357 5.05882 
r147 344 350 3.88985 
r148 344 345 183.96 
r149 339 349 3.88985 
r150 339 340 183.96 
r151 464 298 0.00142683 
r152 603 298 3 
r153 357 287 0.00133393 
r154 605 287 3 
r155 262 357 0.0278113 
r156 608 262 3 
r157 474 251 0.00142683 
r158 612 251 3 
r159 229 236 5.05882 
r160 228 236 5.05882 
r161 223 229 3.88985 
r162 223 224 183.96 
r163 218 228 3.88985 
r164 218 219 183.96 
r165 456 177 0.00142683 
r166 593 177 3 
r167 236 166 0.00133393 
r168 595 166 3 
r169 141 236 0.0278113 
r170 598 141 3 
r171 464 130 0.0277856 
r172 600 130 3 
r173 108 115 5.05882 
r174 107 115 5.05882 
r175 102 108 3.88985 
r176 102 103 183.96 
r177 97 107 3.88985 
r178 97 98 183.96 
r179 450 56 0.00142683 
r180 581 56 3 
r181 115 45 0.00133393 
r182 585 45 3 
r183 20 115 0.0278113 
r184 588 20 3 
r185 456 9 0.0277856 
r186 590 9 3 
.ends

.subckt PM_PC3D11%VSSO 167 330 493 566 589 593 874 878 885 914 921 933 944 946
+ 951 955 962 968 977 983 995 1038 1044 1048 1054
c0 1054 0 31.3476f
c1 1041 0 3.52205f
c2 1038 0 26.4758f
c3 1030 0 7.92488f
c4 1028 0 6.96209f
c5 1022 0 6.96173f
c6 1017 0 6.96175f
c7 1011 0 6.96188f
c8 1006 0 6.96027f
c9 995 0 0.00199756f
c10 990 0 8.95235f
c11 983 0 0.319472f
c12 968 0 1.46273f
c13 955 0 0.842775f
c14 951 0 1.45157f
c15 949 0 1.97902f
c16 946 0 0.00104108f
c17 944 0 8.25608e-19
c18 942 0 8.96457f
c19 931 0 7.84947f
c20 927 0 1.27875f
c21 917 0 1.65601f
c22 914 0 58.2621f
c23 881 0 1.33521f
c24 878 0 10.6369f
c25 871 0 0.193061f
c26 863 0 2.34752f
c27 861 0 0.0825798f
c28 860 0 0.199022f
c29 858 0 0.0941861f
c30 856 0 1.34808f
c31 855 0 0.0220246f
c32 852 0 0.107983f
c33 851 0 0.0484324f
c34 850 0 1.50948f
c35 848 0 0.0594287f
c36 847 0 0.293756f
c37 839 0 12.1933f
c38 838 0 0.725625f
c39 835 0 2.24828f
c40 831 0 0.948476f
c41 825 0 0.708327f
c42 823 0 3.24323f
c43 821 0 0.383003f
c44 820 0 0.713156f
c45 819 0 0.297488f
c46 818 0 3.26283f
c47 817 0 0.383249f
c48 816 0 0.0689962f
c49 815 0 0.351455f
c50 782 0 0.122915f
c51 781 0 8.73234f
c52 751 0 0.269574f
c53 747 0 7.03694f
c54 745 0 0.146306f
c55 596 0 0.358306f
c56 593 0 0.369866f
c57 589 0 0.379175f
c58 582 0 0.363647f
c59 580 0 0.13349f
c60 578 0 0.22694f
c61 576 0 0.237955f
c62 566 0 0.40433f
c63 506 0 5.37124f
c64 408 0 14.0382f
c65 358 0 14.0387f
c66 245 0 14.0387f
c67 195 0 14.0383f
c68 32 0 14.0362f
c69 10 0 0.146306f
r70 1052 1054 0.00282778 
r71 1051 1052 0.355444 
r72 1048 1051 0.00283333 
r73 1043 1045 0.00445269 
r74 1043 1044 0.02 
r75 1041 1043 0.00667904 
r76 1035 1036 0.302139 
r77 1034 1035 0.0394652 
r78 999 1000 0.0140639 
r79 994 995 0.0126606 
r80 1030 992 0.0113761 
r81 990 992 0.0638298 
r82 987 1036 2 
r83 983 987 0.000761905 
r84 971 1035 0.545455 
r85 968 971 0.75 
r86 944 994 0.013211 
r87 990 944 0.000917431 
r88 942 944 0.000913242 
r89 942 999 0.0638298 
r90 932 933 0.02 
r91 931 999 0.0113242 
r92 929 931 0.0327869 
r93 929 932 0.0186572 
r94 927 929 0.029258 
r95 924 1052 0.357143 
r96 921 924 0.21 
r97 919 1038 0.00544385 
r98 1036 919 0.0327273 
r99 917 919 1 
r100 917 921 0.445 
r101 912 914 0.00612761 
r102 912 1030 0.0327869 
r103 1024 910 0.00301483 
r104 910 1028 0.00301741 
r105 908 910 0.0266667 
r106 908 912 0.0287785 
r107 977 907 0.130435 
r108 907 1022 0.00301741 
r109 1019 907 0.00301741 
r110 905 907 0.0266667 
r111 905 908 0.0242129 
r112 1013 904 0.00301483 
r113 904 1017 0.00301741 
r114 902 904 0.0266667 
r115 902 905 0.0242129 
r116 901 902 0.000615582 
r117 962 900 0.130435 
r118 900 1011 0.00301741 
r119 1008 900 0.00301741 
r120 898 900 0.0266667 
r121 898 901 0.0235973 
r122 1002 897 0.00301483 
r123 897 1006 0.00301741 
r124 895 897 0.0266667 
r125 895 898 0.0242129 
r126 894 927 0.02 
r127 894 895 0.0277012 
r128 932 891 0.427466 
r129 888 1051 0.357143 
r130 885 888 0.21 
r131 883 1047 0.148897 
r132 1045 883 0.0151391 
r133 881 883 1 
r134 881 885 0.445 
r135 870 1034 0.080107 
r136 870 871 0.00185772 
r137 862 871 0.0857909 
r138 862 863 3.63314 
r139 860 863 0.0448303 
r140 860 861 0.199481 
r141 857 861 0.0447008 
r142 857 858 0.0831579 
r143 855 856 0.109474 
r144 851 852 0.135 
r145 850 851 0.0448391 
r146 849 850 2.75862 
r147 847 849 0.044715 
r148 847 848 0.466667 
r149 955 846 0.04 
r150 844 846 0.75 
r151 951 843 0.365 
r152 841 843 0.6 
r153 841 844 0.0226738 
r154 840 1041 0.02 
r155 840 841 0.105134 
r156 839 871 0.00185772 
r157 839 844 0.0460963 
r158 838 848 0.0450432 
r159 1047 838 1.29371 
r160 835 949 6 
r161 855 831 0.0429996 
r162 831 835 0.24 
r163 827 995 0.230275 
r164 825 990 0.210275 
r165 824 949 3.78429 
r166 822 946 0.229041 
r167 822 823 0.0863581 
r168 820 942 0.209132 
r169 820 821 0.0863581 
r170 827 818 0.0861375 
r171 818 819 0.132033 
r172 825 817 0.0861375 
r173 815 824 0.0446983 
r174 815 816 0.542857 
r175 812 816 0.0449572 
r176 782 944 0.128 
r177 781 819 0.0473573 
r178 781 944 0.126 
r179 751 782 0.0473573 
r180 823 751 0.132033 
r181 747 944 0.126 
r182 746 944 0.128 
r183 745 746 0.0473573 
r184 745 821 0.250407 
r185 582 593 0.370526 
r186 1034 582 1.5 
r187 580 596 0.04 
r188 858 580 3 
r189 589 578 0.0610526 
r190 856 578 2 
r191 812 576 0.2775 
r192 852 576 6 
r193 596 566 0.0768 
r194 509 878 0.0419737 
r195 874 509 0.0413851 
r196 901 509 0.00128205 
r197 891 506 2.21804 
r198 506 1045 0.6 
r199 910 493 0.130435 
r200 977 408 0.00313778 
r201 1022 408 0.0652174 
r202 493 398 0.0031351 
r203 1024 398 0.0652174 
r204 358 493 0.00314046 
r205 1028 358 0.0652174 
r206 992 347 0.0141284 
r207 347 994 0.0652174 
r208 904 330 0.130435 
r209 962 245 0.00313778 
r210 1011 245 0.0652174 
r211 330 235 0.0031351 
r212 1013 235 0.0652174 
r213 195 330 0.00314046 
r214 1017 195 0.0652174 
r215 185 977 0.00313778 
r216 1019 185 0.0652174 
r217 897 167 0.130435 
r218 82 946 0.0126027 
r219 944 82 0.0131507 
r220 1000 82 0.0652174 
r221 167 72 0.0031351 
r222 1002 72 0.0652174 
r223 32 167 0.00314046 
r224 1006 32 0.0652174 
r225 22 962 0.00313778 
r226 1008 22 0.0652174 
r227 10 817 0.250407 
r228 10 747 0.0473573 
.ends

.subckt PM_PC3D11%CIN 14 19 26 58 101 145
c0 142 0 0.112303f
c1 140 0 7.07074f
c2 131 0 0.420752f
c3 123 0 15.6525f
c4 115 0 4.21592f
c5 110 0 0.176384f
c6 106 0 0.143541f
c7 104 0 5.7193f
c8 98 0 0.0723692f
c9 95 0 0.0379464f
c10 94 0 3.153f
c11 93 0 3.30766f
c12 91 0 0.0895149f
c13 85 0 1.4123f
c14 84 0 0.0898897f
c15 81 0 0.0375884f
c16 80 0 0.855486f
c17 79 0 0.0338006f
c18 75 0 1.37568f
c19 72 0 0.0345401f
c20 71 0 0.568273f
c21 67 0 7.74777f
c22 61 0 0.246801f
c23 60 0 0.18745f
c24 58 0 0.582869f
c25 41 0 1.65143f
c26 37 0 0.0360401f
c27 35 0 0.0187198f
c28 30 0 0.418875f
c29 26 0 1.19364f
c30 24 0 0.062646f
c31 23 0 0.3608f
c32 19 0 1.02343f
c33 14 0 0.655992f
r34 142 145 0.0207123 
r35 142 143 0.0568712 
r36 121 123 10.4343 
r37 119 121 4.96571 
r38 112 140 6 
r39 131 110 6 
r40 108 110 6 
r41 108 112 4.46429 
r42 123 106 6 
r43 104 106 6 
r44 104 108 6.27286 
r45 98 101 0.0207123 
r46 98 142 6 
r47 96 140 11.4788 
r48 94 96 0.04509 
r49 94 95 7.86286 
r50 126 93 4.69857 
r51 91 93 6 
r52 143 91 0.285714 
r53 89 95 0.0446983 
r54 89 91 0.0457143 
r55 82 84 0.107847 
r56 82 126 6 
r57 80 84 0.0448046 
r58 80 81 1.56857 
r59 79 81 0.0448488 
r60 78 79 0.103226 
r61 75 119 6 
r62 73 75 2.17429 
r63 71 78 0.0448488 
r64 71 72 1.35143 
r65 115 69 7.37143 
r66 67 69 6 
r67 66 72 0.0446983 
r68 66 67 14.7657 
r69 63 115 6 
r70 61 73 0.0446983 
r71 61 63 0.3 
r72 59 131 0.549677 
r73 59 60 0.00955498 
r74 57 60 0.0329896 
r75 57 58 0.5 
r76 54 58 0.9375 
r77 85 41 6 
r78 85 38 1.8075 
r79 38 121 6 
r80 35 41 2.64 
r81 31 37 0.029971 
r82 30 54 0.0450043 
r83 30 31 0.441081 
r84 25 37 0.0122637 
r85 25 26 0.9375 
r86 23 37 0.029971 
r87 23 24 0.441081 
r88 18 24 0.0450043 
r89 18 19 0.9375 
r90 13 35 0.0403741 
r91 13 14 0.536471 
.ends

.subckt PM_PC3D11%PAD 21 50 91 120 161 190 247 271 295 319 349 355 380 488 507
+ 514
c0 522 0 26.8791f
c1 515 0 84.0351f
c2 514 0 64.3341f
c3 511 0 159.215f
c4 506 0 1.02561f
c5 499 0 9.97243f
c6 494 0 12.958f
c7 485 0 0.118304f
c8 482 0 202.771f
c9 468 0 15.3329f
c10 450 0 3.86504f
c11 381 0 128.347f
c12 380 0 1.04909f
c13 355 0 13.2018f
c14 349 0 13.172f
c15 319 0 13.1699f
c16 295 0 13.1832f
c17 271 0 13.4186f
c18 247 0 13.1699f
c19 212 0 7.52869f
c20 190 0 2.9853f
c21 173 0 6.78371f
c22 161 0 2.98495f
c23 144 0 6.78371f
c24 120 0 2.9853f
c25 103 0 6.78371f
c26 91 0 2.9853f
c27 74 0 6.78371f
c28 50 0 2.98608f
c29 33 0 6.78371f
c30 21 0 2.9853f
c31 4 0 6.78371f
r32 522 523 0.118407 
r33 521 522 0.118407 
r34 520 521 0.056883 
r35 519 520 0.061524 
r36 518 519 0.118407 
r37 517 518 0.0830354 
r38 516 517 0.0353716 
r39 514 515 0.0124825 
r40 512 514 0.000593149 
r41 511 512 0.0669731 
r42 506 507 0.00916 
r43 499 517 0.0545455 
r44 494 520 0.015 
r45 485 488 0.00916 
r46 485 506 2 
r47 481 494 0.0264274 
r48 481 482 0.147774 
r49 475 476 0.00752787 
r50 474 475 0.021023 
r51 472 474 0.000537705 
r52 472 511 0.00162999 
r53 470 472 0.000537705 
r54 468 470 0.0285508 
r55 459 506 0.1388 
r56 458 459 0.132996 
r57 457 458 0.0171733 
r58 456 457 0.0171733 
r59 455 456 0.0171733 
r60 454 455 0.0171733 
r61 453 454 0.0171733 
r62 450 499 0.202116 
r63 482 383 0.0288462 
r64 381 453 0.00818451 
r65 381 383 0.00646891 
r66 450 380 0.0147368 
r67 344 349 0.0072093 
r68 453 344 0.0566038 
r69 342 355 0.0072093 
r70 458 342 0.0566038 
r71 315 319 0.0072093 
r72 457 315 0.0566038 
r73 291 295 0.0072093 
r74 456 291 0.0566038 
r75 267 271 0.0072093 
r76 455 267 0.0566038 
r77 243 247 0.0072093 
r78 454 243 0.0566038 
r79 223 226 0.0022831 
r80 476 223 0.0375475 
r81 223 512 0.00547945 
r82 474 222 0.00210084 
r83 220 222 0.000537705 
r84 470 220 0.00210084 
r85 222 218 0.0105115 
r86 475 218 0.00712251 
r87 214 226 0.0187738 
r88 218 214 0.00376393 
r89 476 214 0.00712251 
r90 212 220 0.0142754 
r91 468 212 0.00356125 
r92 515 197 0.345778 
r93 196 522 0.0220132 
r94 196 197 0.319822 
r95 190 177 0.00249413 
r96 197 177 0.0425532 
r97 173 190 0.00249413 
r98 197 173 0.0425532 
r99 515 168 0.345778 
r100 167 523 0.0220132 
r101 167 168 0.319822 
r102 161 148 0.00249413 
r103 168 148 0.0425532 
r104 144 161 0.00249413 
r105 168 144 0.0425532 
r106 515 127 0.345778 
r107 126 519 0.0220132 
r108 126 127 0.319822 
r109 120 107 0.00249413 
r110 127 107 0.0425532 
r111 103 120 0.00249413 
r112 127 103 0.0425532 
r113 515 98 0.345778 
r114 97 521 0.0220132 
r115 97 98 0.319822 
r116 91 78 0.00249413 
r117 98 78 0.0425532 
r118 74 91 0.00249413 
r119 98 74 0.0425532 
r120 515 57 0.345778 
r121 56 516 0.0220132 
r122 56 57 0.319822 
r123 50 37 0.00249413 
r124 57 37 0.0425532 
r125 33 50 0.00249413 
r126 57 33 0.0425532 
r127 515 28 0.345778 
r128 27 518 0.0220132 
r129 27 28 0.319822 
r130 21 8 0.00249413 
r131 28 8 0.0425532 
r132 4 21 0.00249413 
r133 28 4 0.0425532 
.ends

.subckt PM_PC3D11%U14_pgate_tol 18 37 68 87 118 137 168 187 298 300 302 304 359
+ 362 368 377 382 402 417 469
c0 687 0 0.414045f
c1 684 0 0.3136f
c2 682 0 0.314371f
c3 681 0 0.314371f
c4 679 0 0.314371f
c5 678 0 0.299846f
c6 676 0 0.314762f
c7 675 0 0.314371f
c8 673 0 0.314371f
c9 672 0 0.326634f
c10 669 0 7.10784f
c11 667 0 9.08283f
c12 657 0 0.173139f
c13 655 0 9.09283f
c14 652 0 0.0821611f
c15 646 0 0.405412f
c16 643 0 0.309607f
c17 641 0 0.309607f
c18 640 0 0.309607f
c19 638 0 0.309607f
c20 637 0 0.293407f
c21 635 0 0.309998f
c22 634 0 0.309607f
c23 632 0 0.309607f
c24 631 0 0.309862f
c25 628 0 7.23439f
c26 627 0 0.145878f
c27 622 0 6.12473f
c28 618 0 0.140364f
c29 614 0 0.762971f
c30 609 0 4.57682f
c31 607 0 0.461136f
c32 600 0 0.170111f
c33 581 0 7.82312f
c34 574 0 15.687f
c35 572 0 0.607092f
c36 568 0 1.21345f
c37 564 0 1.0425f
c38 560 0 0.604489f
c39 544 0 6.45385f
c40 542 0 0.265963f
c41 541 0 0.082441f
c42 530 0 0.168417f
c43 529 0 0.0440559f
c44 476 0 0.498797f
c45 469 0 1.51625f
c46 456 0 0.244803f
c47 452 0 0.171903f
c48 443 0 0.324326f
c49 439 0 0.435699f
c50 436 0 0.274844f
c51 431 0 1.73359f
c52 428 0 0.0436999f
c53 427 0 1.18395f
c54 425 0 1.03279f
c55 423 0 0.168007f
c56 421 0 0.0580007f
c57 417 0 0.831216f
c58 402 0 1.33339f
c59 400 0 0.0159861f
c60 399 0 0.13581f
c61 393 0 0.199249f
c62 391 0 0.0527726f
c63 390 0 0.0764203f
c64 389 0 0.0434107f
c65 388 0 0.245907f
c66 387 0 0.463687f
c67 382 0 1.30573f
c68 377 0 1.28482f
c69 375 0 0.0495389f
c70 374 0 0.383829f
c71 373 0 0.0506144f
c72 372 0 0.216417f
c73 368 0 1.81632f
c74 366 0 0.0510536f
c75 365 0 0.309779f
c76 362 0 3.46619f
c77 359 0 1.73337f
c78 296 0 5.10156f
c79 287 0 4.81366f
c80 286 0 0.372561f
c81 281 0 5.08333f
c82 280 0 0.424184f
c83 268 0 0.370539f
c84 221 0 4.92851f
c85 219 0 0.107369f
c86 217 0 0.133228f
c87 172 0 4.91999f
c88 170 0 0.105999f
c89 153 0 4.92136f
c90 151 0 0.105999f
c91 122 0 4.92136f
c92 120 0 0.105999f
c93 103 0 4.92369f
c94 101 0 0.106492f
c95 72 0 4.88998f
c96 70 0 0.105999f
c97 53 0 4.91601f
c98 51 0 0.105999f
c99 22 0 4.92136f
c100 20 0 0.105999f
c101 3 0 4.92136f
c102 1 0 0.105999f
r103 684 685 0.32439 
r104 681 682 0.32839 
r105 678 679 0.32839 
r106 675 676 0.32839 
r107 672 673 0.32839 
r108 659 661 0.786667 
r109 655 657 6 
r110 654 655 13.1067 
r111 650 652 6 
r112 648 650 0.333333 
r113 643 644 0.323902 
r114 640 641 0.327902 
r115 637 638 0.327902 
r116 634 635 0.327902 
r117 631 632 0.327902 
r118 622 624 6 
r119 627 622 4.1129 
r120 618 657 6 
r121 616 627 0.082369 
r122 616 618 0.0538318 
r123 612 614 6 
r124 609 612 6.94919 
r125 609 652 6 
r126 607 624 0.0817218 
r127 605 614 1.13973 
r128 602 631 0.218537 
r129 628 602 0.158049 
r130 600 602 6 
r131 600 604 0.0447619 
r132 598 687 0.219512 
r133 685 598 0.16439 
r134 596 598 6 
r135 595 684 0.219512 
r136 682 595 0.16039 
r137 593 595 6 
r138 593 596 0.708293 
r139 592 681 0.219512 
r140 679 592 0.16039 
r141 590 592 6 
r142 590 593 0.708293 
r143 589 678 0.219512 
r144 676 589 0.16039 
r145 587 589 6 
r146 587 590 0.708293 
r147 586 675 0.219512 
r148 673 586 0.16039 
r149 584 586 6 
r150 584 587 0.708293 
r151 583 672 0.219512 
r152 669 583 0.16439 
r153 581 583 6 
r154 581 584 0.708293 
r155 580 607 0.044726 
r156 580 581 0.636585 
r157 577 667 6 
r158 661 574 0.544 
r159 572 574 6 
r160 572 577 0.334884 
r161 558 646 0.219512 
r162 644 558 0.164878 
r163 556 558 6 
r164 555 643 0.219512 
r165 641 555 0.160878 
r166 553 555 6 
r167 553 556 0.708293 
r168 552 640 0.219512 
r169 638 552 0.160878 
r170 550 552 6 
r171 550 553 0.708293 
r172 549 637 0.219512 
r173 635 549 0.160878 
r174 547 549 6 
r175 547 550 0.708293 
r176 546 634 0.218537 
r177 632 546 0.161854 
r178 544 546 6 
r179 544 547 0.707317 
r180 604 544 0.662439 
r181 600 542 0.0419048 
r182 541 605 0.0528445 
r183 541 542 0.16 
r184 534 535 1.18857 
r185 529 530 0.12 
r186 526 529 0.0451268 
r187 568 456 6 
r188 568 453 2.5675 
r189 453 654 6 
r190 564 452 6 
r191 564 449 2.26 
r192 449 661 6 
r193 448 654 0.64 
r194 650 448 0.165333 
r195 560 448 6 
r196 560 445 1.41429 
r197 445 476 6 
r198 443 539 1.70571 
r199 443 659 6 
r200 539 442 6 
r201 439 534 0.174286 
r202 439 648 6 
r203 438 667 1.45548 
r204 664 438 0.175484 
r205 534 438 6 
r206 535 436 6 
r207 469 434 2.3375 
r208 530 434 6 
r209 526 431 2.67 
r210 431 664 6 
r211 429 428 0.08 
r212 428 456 0.41 
r213 426 452 0.215 
r214 426 427 0.0302706 
r215 424 476 1.23714 
r216 423 442 0.133333 
r217 422 469 2.0425 
r218 421 436 0.354667 
r219 429 417 1.1475 
r220 401 402 2.0425 
r221 400 424 0.0447675 
r222 399 406 0.0447588 
r223 399 400 0.213333 
r224 393 425 0.0302706 
r225 392 393 0.5075 
r226 390 392 0.0447121 
r227 390 391 0.0993939 
r228 388 427 0.0119838 
r229 388 389 0.585714 
r230 387 391 0.0447113 
r231 386 423 0.0449258 
r232 386 387 1.15765 
r233 381 389 0.0449572 
r234 381 382 2.06 
r235 376 377 2.0925 
r236 375 422 0.0446983 
r237 374 401 0.0446983 
r238 374 375 0.51 
r239 372 425 0.0119838 
r240 372 373 0.585714 
r241 367 373 0.0449572 
r242 367 368 2.01 
r243 365 376 0.0446983 
r244 365 366 0.51 
r245 361 366 0.0446983 
r246 361 362 2.2275 
r247 360 421 0.0447588 
r248 360 362 3.765 
r249 406 359 2.44 
r250 296 304 394.95 
r251 687 295 2.81176 
r252 295 296 1.5 
r253 287 302 394.95 
r254 286 685 2.74706 
r255 286 287 1.5 
r256 281 298 394.95 
r257 280 669 2.85294 
r258 280 281 1.5 
r259 278 304 394.95 
r260 646 277 2.78235 
r261 277 278 1.5 
r262 269 302 394.95 
r263 268 644 2.74706 
r264 268 269 1.5 
r265 222 672 2.04706 
r266 221 300 394.95 
r267 221 222 4.2601 
r268 220 631 2.04706 
r269 219 300 394.95 
r270 219 220 4.2601 
r271 218 628 2.07059 
r272 217 298 394.95 
r273 217 218 4.2601 
r274 173 684 2.07647 
r275 172 187 394.95 
r276 172 173 4.2601 
r277 171 643 2.07647 
r278 170 187 394.95 
r279 170 171 4.2601 
r280 154 682 2.07647 
r281 153 168 394.95 
r282 153 154 4.2601 
r283 152 641 2.07647 
r284 151 168 394.95 
r285 151 152 4.2601 
r286 123 681 2.07647 
r287 122 137 394.95 
r288 122 123 4.2601 
r289 121 640 2.07647 
r290 120 137 394.95 
r291 120 121 4.2601 
r292 104 679 2.07647 
r293 103 118 394.95 
r294 103 104 4.2601 
r295 102 638 2.07647 
r296 101 118 394.95 
r297 101 102 4.2601 
r298 73 678 2.07647 
r299 72 87 394.95 
r300 72 73 4.2601 
r301 71 637 2.07647 
r302 70 87 394.95 
r303 70 71 4.2601 
r304 54 676 2.07647 
r305 53 68 394.95 
r306 53 54 4.2601 
r307 52 635 2.07647 
r308 51 68 394.95 
r309 51 52 4.2601 
r310 23 675 2.07647 
r311 22 37 394.95 
r312 22 23 4.2601 
r313 21 634 2.07647 
r314 20 37 394.95 
r315 20 21 4.2601 
r316 4 673 2.07647 
r317 3 18 394.95 
r318 3 4 4.2601 
r319 2 632 2.07647 
r320 1 18 394.95 
r321 1 2 4.2601 
.ends

.subckt PM_PC3D11%U9_U19_gate 95 97 99 101 104 107 115
c0 137 0 0.379666f
c1 133 0 2.45625f
c2 130 0 3.52667f
c3 126 0 0.0229117f
c4 115 0 0.00966631f
c5 112 0 3.14633f
c6 107 0 1.14734f
c7 104 0 0.694895f
c8 101 0 0.518161f
c9 99 0 0.536999f
c10 97 0 0.69017f
c11 95 0 0.600093f
c12 69 0 0.339465f
c13 62 0 0.58365f
c14 52 0 0.0940199f
c15 51 0 1.64257f
c16 11 0 0.0699777f
c17 10 0 0.0840647f
c18 8 0 0.073801f
c19 3 0 0.185279f
c20 2 0 0.0751729f
c21 1 0 0.123614f
r22 130 137 6 
r23 127 130 3.60273 
r24 126 137 0.2975 
r25 124 126 0.0403741 
r26 75 95 51.6667 
r27 107 68 2.03 
r28 133 68 6 
r29 133 65 3.87625 
r30 65 112 6 
r31 64 115 0.265 
r32 112 64 3.16625 
r33 127 64 6 
r34 61 107 0.39125 
r35 61 62 0.0338756 
r36 57 124 0.0454972 
r37 57 69 0.133333 
r38 75 52 2.42502 
r39 51 62 0.00880368 
r40 51 52 2.6725 
r41 12 104 70.3333 
r42 10 69 6.58333 
r43 10 11 2.54067 
r44 9 101 70.3333 
r45 9 11 0.660276 
r46 7 69 5.08333 
r47 7 8 2.54067 
r48 6 99 70.3333 
r49 6 8 0.660276 
r50 5 97 70.3333 
r51 4 11 2.54067 
r52 3 12 3.35237 
r53 3 4 13.5 
r54 2 5 3.35237 
r55 1 8 2.54067 
r56 1 2 13.6667 
.ends

.subckt PM_PC3D11%VDDO 824 892 903 914 925 936 947 958 973 1199 1212 1214 1264
+ 1272 1525 1529 1532 1536 1544 1551 1558 1567 1577 1588 1594 1600 1606 1612 1653
+ 1666 1669 1674
c0 1674 0 20.3129f
c1 1666 0 46.173f
c2 1649 0 2.98997f
c3 1618 0 9.5721f
c4 1612 0 1.74896f
c5 1606 0 2.15874f
c6 1600 0 1.72102f
c7 1594 0 1.95034f
c8 1588 0 2.02308f
c9 1585 0 3.35178f
c10 1574 0 0.505082f
c11 1570 0 29.0776f
c12 1569 0 1.97484f
c13 1567 0 62.8661f
c14 1550 0 50.9389f
c15 1541 0 0.696813f
c16 1539 0 1.2453f
c17 1536 0 3.00652f
c18 1529 0 2.4994f
c19 1522 0 0.0698777f
c20 1520 0 1.09255f
c21 1513 0 0.330853f
c22 1509 0 0.14958f
c23 1503 0 0.230124f
c24 1499 0 0.661063f
c25 1495 0 0.332801f
c26 1491 0 0.194107f
c27 1486 0 2.2149f
c28 1485 0 0.985815f
c29 1483 0 0.0714314f
c30 1482 0 0.111846f
c31 1448 0 9.76182f
c32 1284 0 11.6857f
c33 1282 0 2.10895f
c34 1272 0 0.314989f
c35 1264 0 0.0819925f
c36 1241 0 0.120606f
c37 1235 0 0.119415f
c38 1231 0 0.136107f
c39 1229 0 7.65986f
c40 1228 0 8.82614f
c41 1221 0 0.0962101f
c42 1214 0 0.349207f
c43 1212 0 0.764241f
c44 1206 0 0.0303797f
c45 1205 0 0.850499f
c46 1199 0 1.25788f
c47 1120 0 3.63084f
c48 1085 0 5.39118f
c49 1070 0 1.29937f
c50 1066 0 0.615713f
c51 1062 0 8.82846f
c52 1060 0 6.7868f
c53 1058 0 0.588747f
c54 1052 0 0.170971f
c55 1049 0 0.0533066f
c56 1047 0 0.0989764f
c57 973 0 7.73649f
c58 965 0 7.33964f
c59 962 0 11.7156f
c60 951 0 19.4869f
c61 940 0 19.4869f
c62 929 0 19.5155f
c63 918 0 19.4869f
c64 907 0 19.4869f
c65 896 0 11.8398f
c66 849 0 0.210878f
c67 812 0 0.0533066f
c68 801 0 0.12462f
c69 800 0 5.89132f
c70 797 0 0.104443f
c71 796 0 6.16073f
c72 17 0 0.486838f
c73 16 0 6.73322f
c74 7 0 0.152029f
c75 6 0 6.75738f
r76 1669 1672 0.00394881 
r77 1663 1664 0.272418 
r78 1662 1663 0.0205664 
r79 1661 1662 0.122789 
r80 1660 1661 0.0124619 
r81 1659 1660 0.031634 
r82 1658 1659 0.0270153 
r83 1657 1658 0.0699782 
r84 1651 1666 0.00304139 
r85 1664 1651 0.00174292 
r86 1649 1651 0.461538 
r87 1615 1663 0.545455 
r88 1612 1615 1.185 
r89 1609 1662 0.545455 
r90 1606 1609 1.45 
r91 1603 1661 0.545455 
r92 1600 1603 1.4825 
r93 1597 1660 0.545455 
r94 1594 1597 1.63 
r95 1591 1658 0.5 
r96 1588 1591 1.455 
r97 1587 1657 0.00174292 
r98 1653 1587 0.00305011 
r99 1585 1587 0.461538 
r100 1581 1674 0.0039415 
r101 1672 1581 0.467422 
r102 1579 1581 0.5 
r103 1577 1579 0.181 
r104 1574 1577 0.17 
r105 1574 1664 1.5 
r106 1571 1572 0.5433 
r107 1570 1571 0.2247 
r108 1569 1572 0.099 
r109 1565 1567 0.0136564 
r110 1564 1565 0.0314855 
r111 1563 1564 0.0601494 
r112 1562 1563 0.0634357 
r113 1561 1562 0.0334274 
r114 1558 1561 0.01361 
r115 1547 1672 0.5 
r116 1544 1547 0.181 
r117 1541 1544 0.17 
r118 1541 1657 1.5 
r119 1539 1570 0.5293 
r120 1515 1518 3 
r121 1618 1515 0.0677429 
r122 1513 1515 3 
r123 1618 1505 0.1116 
r124 1646 1505 0.0028 
r125 1503 1505 6 
r126 1522 1484 0.0456991 
r127 1484 1485 2.06857 
r128 1482 1485 0.0446983 
r129 1482 1483 0.0971429 
r130 1480 1483 0.0446983 
r131 1480 1520 1.64571 
r132 1448 1646 0.2648 
r133 1447 1646 0.2664 
r134 1446 1646 0.2664 
r135 1286 1499 1.2 
r136 1284 1286 12.5639 
r137 1275 1495 1 
r138 1270 1509 3 
r139 1267 1270 0.2885 
r140 1267 1491 2 
r141 1264 1267 2.755 
r142 1263 1264 1.9625 
r143 1262 1263 0.361 
r144 1503 1254 0.000149533 
r145 1539 1253 0.0555566 
r146 1253 1254 6 
r147 1252 1518 0.0444444 
r148 1513 1252 7.40741e-05 
r149 1539 1251 0.0279474 
r150 1251 1252 1.5 
r151 1491 1250 0.000233918 
r152 1571 1250 2 
r153 1499 1248 0.000114123 
r154 1570 1248 1.2 
r155 1495 1246 0.000100503 
r156 1572 1246 1 
r157 1509 1244 0.000299625 
r158 1571 1244 3 
r159 1522 1241 6 
r160 1520 1238 0.0557895 
r161 1238 1262 3 
r162 1236 1263 6 
r163 1235 1282 0.0561431 
r164 1486 1235 6 
r165 1232 1236 3.20857 
r166 1486 1232 0.582857 
r167 1232 1284 6 
r168 1272 1231 0.0621053 
r169 1659 1231 2 
r170 1229 1275 0.219259 
r171 1228 1270 0.0845 
r172 1221 1262 0.8885 
r173 1220 1649 0.526 
r174 1220 1229 0.0447005 
r175 1219 1649 2.122 
r176 1219 1228 0.0446983 
r177 1212 1214 0.81913 
r178 1211 1214 0.309565 
r179 1205 1211 0.0446983 