* File: PAH_18_NA.sp
* Created: Sun Feb 12 14:10:56 2023
* Program "Calibre xRC"
* Version "v2022.4_16.8"
*
.options scale=1u
.SUBCKT PAH_18_NA PAD VDDO VSSO VSS VDD PADR
*.PININFO PAD:B VDDO:B VSSO:B VSS:B VDD:B PADR:B

M0 VSSO 8 7 VSSO n18 L=0.18 W=20 AD=15 AS=15 PD=41.5 PS=41.5 postlayout=1
M17 VSSO 9 PADR VSSO n18 L=0.18 W=5 AD=2.6 AS=3.75 PD=6.04 PS=11.5 postlayout=1
M18 VSSO 9 PADR VSSO n18 L=0.18 W=5 AD=2.6 AS=2.6 PD=6.04 PS=6.04 postlayout=1
M19 VSSO 9 PADR VSSO n18 L=0.18 W=5 AD=2.6 AS=2.6 PD=6.04 PS=6.04 postlayout=1
M20 VSSO 9 PADR VSSO n18 L=0.18 W=5 AD=2.6 AS=2.6 PD=6.04 PS=6.04 postlayout=1
M21 VSSO 9 PADR VSSO n18 L=0.18 W=5 AD=2.6 AS=2.6 PD=6.04 PS=6.04 postlayout=1
M22 VSSO 9 PADR VSSO n18 L=0.18 W=5 AD=2.6 AS=2.6 PD=6.04 PS=6.04 postlayout=1
M23 VSSO 9 PADR VSSO n18 L=0.18 W=5 AD=2.6 AS=2.6 PD=6.04 PS=6.04 postlayout=1
M24 VSSO 9 PADR VSSO n18 L=0.18 W=5 AD=2.6 AS=3.75 PD=6.04 PS=11.5 postlayout=1
M41 VSS 14 15 VSS n18 L=0.18 W=20 AD=15 AS=15 PD=41.5 PS=41.5 postlayout=1
M42 VMAX VMAX VDDO VMAX p18 L=0.18 W=10 AD=4.7 AS=7 PD=10.94 PS=21.4  postlayout=1
M43 6 10 VMAX VMAX p18 L=0.18 W=10 AD=4.7 AS=4.7 PD=10.94 PS=10.94 postlayout=1
M44 6 10 VMAX VMAX p18 L=0.18 W=10 AD=4.7 AS=4.7 PD=10.94 PS=10.94 postlayout=1
M45 6 10 VMAX VMAX p18 L=0.18 W=10 AD=7 AS=4.7 PD=21.4 PS=10.94 postlayout=1
M66 VMAX PADR VDDO VMAX p18 L=0.18 W=10 AD=4.7 AS=7 PD=10.94 PS=21.4  postlayout=1
M67 VMAX PADR VDDO VMAX p18 L=0.18 W=10 AD=4.7 AS=4.7 PD=10.94 PS=10.94  postlayout=1
M68 VMAX PADR VDDO VMAX p18 L=0.18 W=10 AD=4.7 AS=4.7 PD=10.94 PS=10.94  postlayout=1
M69 PADR 12 VMAX VMAX p18 L=0.18 W=10 AD=4.7 AS=4.7 PD=10.94 PS=10.94  postlayout=1
M70 PADR 12 VMAX VMAX p18 L=0.18 W=10 AD=4.7 AS=4.7 PD=10.94 PS=10.94  postlayout=1
M71 PADR 12 VMAX VMAX p18 L=0.18 W=10 AD=7 AS=4.7 PD=21.4 PS=10.94 postlayout=1
XR72 VSSO 9 VSSO rnmpoly3t w=3 l=7
XR73 VSSO 10 VSSO rnmpoly3t w=3 l=7
XR74 12 VDDO VSSO rnmpoly3t w=3 l=7
XR75 PADR PAD VSSO rnmpoly3t w=5 l=13
XR76 8 VMAX VSSO rnmpoly3t w=3 l=7
XR77 14 VMAX VSS rnmpoly3t w=3 l=7
XD88 VSS VSSO dpnwcpl  AREA=22.42 PJ=32.5314 nf=1
XD89 VSS VSSO dpnwcpl  AREA=22.42 PJ=32.5314 nf=1
XD90 VSS VSSO dpnwcpl  AREA=22.42 PJ=32.5314 nf=1
XD91 VSS VSSO dpnwcpl  AREA=22.42 PJ=32.5314 nf=1
XD92 VSS VSSO dpnwcpl  AREA=22.42 PJ=32.5314 nf=1
XD93 VSS VSSO dpnwcpl  AREA=22.42 PJ=32.5314 nf=1
XD94 VSS VSSO dpnwcpl  AREA=22.42 PJ=32.5314 nf=1
XD95 VSSO VSS dpnwcpl  AREA=22.42 PJ=32.5314 nf=1
XD96 VSSO VSS dpnwcpl  AREA=22.42 PJ=32.5314 nf=1
XD97 VSSO VSS dpnwcpl  AREA=22.42 PJ=32.5314 nf=1
XD98 VSSO VSS dpnwcpl  AREA=22.42 PJ=32.5314 nf=1
XD99 VSSO VSS dpnwcpl  AREA=22.42 PJ=32.5314 nf=1
XD100 VSSO VSS dpnwcpl  AREA=22.42 PJ=32.5314 nf=1
XD101 VSSO VSS dpnwcpl  AREA=22.42 PJ=32.5314 nf=1
D78 VSS VMAX dnwell33  AREA=2429.56 PJ=225.67
D79 VSSO VDDO dnwell33  AREA=3111.53 PJ=1619.48
D81 VSS VDDO dnwell33  AREA=3111.53 PJ=1619.48
D82 VSS VDDO dnwell33  AREA=3111.53 PJ=1619.48
D80 VSSO VDDO dnwell33  AREA=3111.53 PJ=1619.48
D83 VSS VDDO dnwell33  AREA=3111.53 PJ=1619.48
D46_noxref VSSO VSSO dnwell33  AREA=637.09 PJ=105.44
D47_noxref VSS VSS dnwell33  AREA=637.09 PJ=105.44
M46 PAD 6 VDDO VMAX p18 L=0.25 W=20.8 AD=42.328 AS=31.096 PD=24.87 PS=44.59  postlayout=1
M47 PAD 6 VDDO VMAX p18 L=0.25 W=20.8 AD=42.328 AS=20.488 PD=24.87 PS=22.77  postlayout=1
M48 PAD 6 VDDO VMAX p18 L=0.25 W=20.8 AD=42.328 AS=20.488 PD=24.87 PS=22.77  postlayout=1
M49 PAD 6 VDDO VMAX p18 L=0.25 W=20.8 AD=42.328 AS=20.488 PD=24.87 PS=22.77  postlayout=1
M50 PAD 6 VDDO VMAX p18 L=0.25 W=20.8 AD=42.328 AS=20.488 PD=24.87 PS=22.77  postlayout=1
M51 PAD 6 VDDO VMAX p18 L=0.25 W=20.8 AD=42.328 AS=20.488 PD=24.87 PS=22.77  postlayout=1
M52 PAD 6 VDDO VMAX p18 L=0.25 W=20.8 AD=42.328 AS=20.488 PD=24.87 PS=22.77  postlayout=1
M53 PAD 6 VDDO VMAX p18 L=0.25 W=20.8 AD=42.328 AS=20.488 PD=24.87 PS=22.77  postlayout=1
M54 PAD 6 VDDO VMAX p18 L=0.25 W=20.8 AD=42.328 AS=20.488 PD=24.87 PS=22.77  postlayout=1
M55 PAD 6 VDDO VMAX p18 L=0.25 W=20.8 AD=42.328 AS=20.488 PD=24.87 PS=22.77  postlayout=1
M56 PAD 6 VDDO VMAX p18 L=0.25 W=20.8 AD=42.328 AS=20.488 PD=24.87 PS=22.77  postlayout=1
M57 PAD 6 VDDO VMAX p18 L=0.25 W=20.8 AD=42.328 AS=20.488 PD=24.87 PS=22.77  postlayout=1
M58 PAD 6 VDDO VMAX p18 L=0.25 W=20.8 AD=42.328 AS=20.488 PD=24.87 PS=22.77  postlayout=1
M59 PAD 6 VDDO VMAX p18 L=0.25 W=20.8 AD=42.328 AS=20.488 PD=24.87 PS=22.77  postlayout=1
M60 PAD 6 VDDO VMAX p18 L=0.25 W=20.8 AD=42.328 AS=20.488 PD=24.87 PS=22.77  postlayout=1
M61 PAD 6 VDDO VMAX p18 L=0.25 W=20.8 AD=42.328 AS=20.488 PD=24.87 PS=22.77  postlayout=1
M62 PAD 6 VDDO VMAX p18 L=0.25 W=20.8 AD=42.328 AS=20.488 PD=24.87 PS=22.77  postlayout=1
M63 PAD 6 VDDO VMAX p18 L=0.25 W=20.8 AD=42.328 AS=20.488 PD=24.87 PS=22.77  postlayout=1
M64 PAD 6 VDDO VMAX p18 L=0.25 W=20.8 AD=42.328 AS=20.488 PD=24.87 PS=22.77  postlayout=1
M65 PAD 6 VDDO VMAX p18 L=0.25 W=20.8 AD=42.328 AS=31.096 PD=24.87 PS=44.59  postlayout=1
M1 PAD 7 VSSO VSSO n18 L=0.25 W=24 AD=84.12 AS=37.08 PD=31.01 PS=51.09  postlayout=1
M2 PAD 7 VSSO VSSO n18 L=0.25 W=24 AD=84.12 AS=24.84 PD=31.01 PS=26.07  postlayout=1
M3 PAD 7 VSSO VSSO n18 L=0.25 W=24 AD=84.12 AS=24.84 PD=31.01 PS=26.07  postlayout=1
M4 PAD 7 VSSO VSSO n18 L=0.25 W=24 AD=84.12 AS=24.84 PD=31.01 PS=26.07  postlayout=1
M5 PAD 7 VSSO VSSO n18 L=0.25 W=24 AD=84.12 AS=24.84 PD=31.01 PS=26.07  postlayout=1
M6 PAD 7 VSSO VSSO n18 L=0.25 W=24 AD=84.12 AS=24.84 PD=31.01 PS=26.07  postlayout=1
M7 PAD 7 VSSO VSSO n18 L=0.25 W=24 AD=84.12 AS=24.84 PD=31.01 PS=26.07  postlayout=1
M8 PAD 7 VSSO VSSO n18 L=0.25 W=24 AD=84.12 AS=24.84 PD=31.01 PS=26.07  postlayout=1
M9 PAD 7 VSSO VSSO n18 L=0.25 W=24 AD=84.12 AS=24.84 PD=31.01 PS=26.07  postlayout=1
M10 PAD 7 VSSO VSSO n18 L=0.25 W=24 AD=84.12 AS=24.84 PD=31.01 PS=26.07  postlayout=1
M11 PAD 7 VSSO VSSO n18 L=0.25 W=24 AD=84.12 AS=24.84 PD=31.01 PS=26.07  postlayout=1
M12 PAD 7 VSSO VSSO n18 L=0.25 W=24 AD=84.12 AS=24.84 PD=31.01 PS=26.07  postlayout=1
M13 PAD 7 VSSO VSSO n18 L=0.25 W=24 AD=84.12 AS=24.84 PD=31.01 PS=26.07  postlayout=1
M14 PAD 7 VSSO VSSO n18 L=0.25 W=24 AD=84.12 AS=24.84 PD=31.01 PS=26.07  postlayout=1
M15 PAD 7 VSSO VSSO n18 L=0.25 W=24 AD=84.12 AS=24.84 PD=31.01 PS=26.07  postlayout=1
M16 PAD 7 VSSO VSSO n18 L=0.25 W=24 AD=84.12 AS=37.08 PD=31.01 PS=51.09  postlayout=1
D84 VSSO VDDO dnwell33  AREA=3111.53 PJ=1619.48
M25 PAD 15 VSS VSS n18 L=0.25 W=24 AD=84.12 AS=37.08 PD=31.01 PS=51.09  postlayout=1
M26 PAD 15 VSS VSS n18 L=0.25 W=24 AD=84.12 AS=24.84 PD=31.01 PS=26.07  postlayout=1
M27 PAD 15 VSS VSS n18 L=0.25 W=24 AD=84.12 AS=24.84 PD=31.01 PS=26.07  postlayout=1
M28 PAD 15 VSS VSS n18 L=0.25 W=24 AD=84.12 AS=24.84 PD=31.01 PS=26.07  postlayout=1
M29 PAD 15 VSS VSS n18 L=0.25 W=24 AD=84.12 AS=24.84 PD=31.01 PS=26.07  postlayout=1
M30 PAD 15 VSS VSS n18 L=0.25 W=24 AD=84.12 AS=24.84 PD=31.01 PS=26.07  postlayout=1
M31 PAD 15 VSS VSS n18 L=0.25 W=24 AD=84.12 AS=24.84 PD=31.01 PS=26.07  postlayout=1
M32 PAD 15 VSS VSS n18 L=0.25 W=24 AD=84.12 AS=24.84 PD=31.01 PS=26.07  postlayout=1
M33 PAD 15 VSS VSS n18 L=0.25 W=24 AD=84.12 AS=24.84 PD=31.01 PS=26.07  postlayout=1
M34 PAD 15 VSS VSS n18 L=0.25 W=24 AD=84.12 AS=24.84 PD=31.01 PS=26.07  postlayout=1
M35 PAD 15 VSS VSS n18 L=0.25 W=24 AD=84.12 AS=24.84 PD=31.01 PS=26.07  postlayout=1
M36 PAD 15 VSS VSS n18 L=0.25 W=24 AD=84.12 AS=24.84 PD=31.01 PS=26.07  postlayout=1
M37 PAD 15 VSS VSS n18 L=0.25 W=24 AD=84.12 AS=24.84 PD=31.01 PS=26.07  postlayout=1
M38 PAD 15 VSS VSS n18 L=0.25 W=24 AD=84.12 AS=24.84 PD=31.01 PS=26.07  postlayout=1
M39 PAD 15 VSS VSS n18 L=0.25 W=24 AD=84.12 AS=24.84 PD=31.01 PS=26.07  postlayout=1
M40 PAD 15 VSS VSS n18 L=0.25 W=24 AD=84.12 AS=37.08 PD=31.01 PS=51.09  postlayout=1
D85 VSS VDDO dnwell33  AREA=3111.53 PJ=1619.48
.ends
*
*
* File: PAH_50_NA.sp
* Created: Sun Feb 12 14:11:26 2023
* Program "Calibre xRC"
* Version "v2022.4_16.8"
*
.options scale=1u
.SUBCKT PAH_50_NA PAD VDDO VSSO VSS VDD PADR
*.PININFO PAD:B VDDO:B VSSO:B VSS:B VDD:B PADR:B

M0 VSSO 9 8 VSSO n5v L=0.6 W=20 AD=10.8 AS=10.8 PD=41.08 PS=41.08 postlayout=1
M17 VSSO 10 PADR VSSO n5v L=0.6 W=5 AD=1.55 AS=2.7 PD=5.62 PS=11.08 postlayout=1
M18 VSSO 10 PADR VSSO n5v L=0.6 W=5 AD=1.55 AS=1.55 PD=5.62 PS=5.62 postlayout=1
M19 VSSO 10 PADR VSSO n5v L=0.6 W=5 AD=1.55 AS=1.55 PD=5.62 PS=5.62 postlayout=1
M20 VSSO 10 PADR VSSO n5v L=0.6 W=5 AD=1.55 AS=1.55 PD=5.62 PS=5.62 postlayout=1
M21 VSSO 10 PADR VSSO n5v L=0.6 W=5 AD=1.55 AS=1.55 PD=5.62 PS=5.62 postlayout=1
M22 VSSO 10 PADR VSSO n5v L=0.6 W=5 AD=1.55 AS=1.55 PD=5.62 PS=5.62 postlayout=1
M23 VSSO 10 PADR VSSO n5v L=0.6 W=5 AD=1.55 AS=1.55 PD=5.62 PS=5.62 postlayout=1
M24 VSSO 10 PADR VSSO n5v L=0.6 W=5 AD=1.55 AS=2.7 PD=5.62 PS=11.08 postlayout=1
M41 VSS 14 15 VSS n5v L=0.6 W=20 AD=10.8 AS=10.8 PD=41.08 PS=41.08 postlayout=1
M42 VMAX VMAX VDDO VMAX p5v L=0.5 W=10 AD=3.1 AS=5.4 PD=10.62 PS=21.08  postlayout=1
M43 7 6 VMAX VMAX p5v L=0.5 W=10 AD=3.1 AS=3.1 PD=10.62 PS=10.62 postlayout=1
M44 7 6 VMAX VMAX p5v L=0.5 W=10 AD=3.1 AS=3.1 PD=10.62 PS=10.62 postlayout=1
M45 7 6 VMAX VMAX p5v L=0.5 W=10 AD=5.4 AS=3.1 PD=21.08 PS=10.62 postlayout=1
M66 VMAX PADR VDDO VMAX p5v L=0.5 W=10 AD=3.1 AS=5.4 PD=10.62 PS=21.08  postlayout=1
M67 VMAX PADR VDDO VMAX p5v L=0.5 W=10 AD=3.1 AS=3.1 PD=10.62 PS=10.62  postlayout=1
M68 VMAX PADR VDDO VMAX p5v L=0.5 W=10 AD=3.1 AS=3.1 PD=10.62 PS=10.62  postlayout=1
M69 PADR 13 VMAX VMAX p5v L=0.5 W=10 AD=3.1 AS=3.1 PD=10.62 PS=10.62  postlayout=1
M70 PADR 13 VMAX VMAX p5v L=0.5 W=10 AD=3.1 AS=3.1 PD=10.62 PS=10.62  postlayout=1
M71 PADR 13 VMAX VMAX p5v L=0.5 W=10 AD=5.4 AS=3.1 PD=21.08 PS=10.62  postlayout=1
XR72 VSSO 10 VSSO rnmpoly3t w=3 l=7
XR73 VSSO 6 VSSO rnmpoly3t w=3 l=7
XR74 13 VDDO VSSO rnmpoly3t w=3 l=7
XR75 PADR PAD VSSO rnmpoly3t w=5 l=13
XR76 9 VMAX VSSO rnmpoly3t w=3 l=7
XR77 14 VMAX VSS rnmpoly3t w=3 l=7
XD88 VSS VSSO dpnwcpl5  AREA=22.42 PJ=32.5314 nf=1
XD89 VSS VSSO dpnwcpl5  AREA=22.42 PJ=32.5314 nf=1
XD90 VSS VSSO dpnwcpl5  AREA=22.42 PJ=32.5314 nf=1
XD91 VSS VSSO dpnwcpl5  AREA=22.42 PJ=32.5314 nf=1
XD92 VSS VSSO dpnwcpl5  AREA=22.42 PJ=32.5314 nf=1
XD93 VSS VSSO dpnwcpl5  AREA=22.42 PJ=32.5314 nf=1
XD94 VSS VSSO dpnwcpl5  AREA=22.42 PJ=32.5314 nf=1
XD95 VSSO VSS dpnwcpl5  AREA=22.42 PJ=32.5314 nf=1
XD96 VSSO VSS dpnwcpl5  AREA=22.42 PJ=32.5314 nf=1
XD97 VSSO VSS dpnwcpl5  AREA=22.42 PJ=32.5314 nf=1
XD98 VSSO VSS dpnwcpl5  AREA=22.42 PJ=32.5314 nf=1
XD99 VSSO VSS dpnwcpl5  AREA=22.42 PJ=32.5314 nf=1
XD100 VSSO VSS dpnwcpl5  AREA=22.42 PJ=32.5314 nf=1
XD101 VSSO VSS dpnwcpl5  AREA=22.42 PJ=32.5314 nf=1
D78 VSS VMAX dnwell33  AREA=2429.56 PJ=225.67
D79 VSSO VDDO dnwell33  AREA=3111.53 PJ=1619.48
D81 VSS VDDO dnwell33  AREA=3111.53 PJ=1619.48
D82 VSS VDDO dnwell33  AREA=3111.53 PJ=1619.48
D80 VSSO VDDO dnwell33  AREA=3111.53 PJ=1619.48
D83 VSS VDDO dnwell33  AREA=3111.53 PJ=1619.48
D46_noxref VSSO VSSO dnwell33  AREA=637.09 PJ=105.44
D47_noxref VSS VSS dnwell33  AREA=637.09 PJ=105.44
M46 PAD 7 VDDO VMAX p5v L=0.5 W=20.8 AD=39.728 AS=28.496 PD=24.62 PS=44.34  postlayout=1
M47 PAD 7 VDDO VMAX p5v L=0.5 W=20.8 AD=39.728 AS=17.888 PD=24.62 PS=22.52  postlayout=1
M48 PAD 7 VDDO VMAX p5v L=0.5 W=20.8 AD=39.728 AS=17.888 PD=24.62 PS=22.52  postlayout=1
M49 PAD 7 VDDO VMAX p5v L=0.5 W=20.8 AD=39.728 AS=17.888 PD=24.62 PS=22.52  postlayout=1
M50 PAD 7 VDDO VMAX p5v L=0.5 W=20.8 AD=39.728 AS=17.888 PD=24.62 PS=22.52  postlayout=1
M51 PAD 7 VDDO VMAX p5v L=0.5 W=20.8 AD=39.728 AS=17.888 PD=24.62 PS=22.52  postlayout=1
M52 PAD 7 VDDO VMAX p5v L=0.5 W=20.8 AD=39.728 AS=17.888 PD=24.62 PS=22.52  postlayout=1
M53 PAD 7 VDDO VMAX p5v L=0.5 W=20.8 AD=39.728 AS=17.888 PD=24.62 PS=22.52  postlayout=1
M54 PAD 7 VDDO VMAX p5v L=0.5 W=20.8 AD=39.728 AS=17.888 PD=24.62 PS=22.52  postlayout=1
M55 PAD 7 VDDO VMAX p5v L=0.5 W=20.8 AD=39.728 AS=17.888 PD=24.62 PS=22.52  postlayout=1
M56 PAD 7 VDDO VMAX p5v L=0.5 W=20.8 AD=39.728 AS=17.888 PD=24.62 PS=22.52  postlayout=1
M57 PAD 7 VDDO VMAX p5v L=0.5 W=20.8 AD=39.728 AS=17.888 PD=24.62 PS=22.52  postlayout=1
M58 PAD 7 VDDO VMAX p5v L=0.5 W=20.8 AD=39.728 AS=17.888 PD=24.62 PS=22.52  postlayout=1
M59 PAD 7 VDDO VMAX p5v L=0.5 W=20.8 AD=39.728 AS=17.888 PD=24.62 PS=22.52  postlayout=1
M60 PAD 7 VDDO VMAX p5v L=0.5 W=20.8 AD=39.728 AS=17.888 PD=24.62 PS=22.52  postlayout=1
M61 PAD 7 VDDO VMAX p5v L=0.5 W=20.8 AD=39.728 AS=17.888 PD=24.62 PS=22.52  postlayout=1
M62 PAD 7 VDDO VMAX p5v L=0.5 W=20.8 AD=39.728 AS=17.888 PD=24.62 PS=22.52  postlayout=1
M63 PAD 7 VDDO VMAX p5v L=0.5 W=20.8 AD=39.728 AS=17.888 PD=24.62 PS=22.52  postlayout=1
M64 PAD 7 VDDO VMAX p5v L=0.5 W=20.8 AD=39.728 AS=17.888 PD=24.62 PS=22.52  postlayout=1
M65 PAD 7 VDDO VMAX p5v L=0.5 W=20.8 AD=39.728 AS=28.496 PD=24.62 PS=44.34  postlayout=1
M1 PAD 8 VSSO VSSO n5v L=0.6 W=24 AD=79.92 AS=32.88 PD=30.66 PS=50.74  postlayout=1
M2 PAD 8 VSSO VSSO n5v L=0.6 W=24 AD=79.92 AS=20.64 PD=30.66 PS=25.72  postlayout=1
M3 PAD 8 VSSO VSSO n5v L=0.6 W=24 AD=79.92 AS=20.64 PD=30.66 PS=25.72  postlayout=1
M4 PAD 8 VSSO VSSO n5v L=0.6 W=24 AD=79.92 AS=20.64 PD=30.66 PS=25.72  postlayout=1
M5 PAD 8 VSSO VSSO n5v L=0.6 W=24 AD=79.92 AS=20.64 PD=30.66 PS=25.72  postlayout=1
M6 PAD 8 VSSO VSSO n5v L=0.6 W=24 AD=79.92 AS=20.64 PD=30.66 PS=25.72  postlayout=1
M7 PAD 8 VSSO VSSO n5v L=0.6 W=24 AD=79.92 AS=20.64 PD=30.66 PS=25.72  postlayout=1
M8 PAD 8 VSSO VSSO n5v L=0.6 W=24 AD=79.92 AS=20.64 PD=30.66 PS=25.72  postlayout=1
M9 PAD 8 VSSO VSSO n5v L=0.6 W=24 AD=79.92 AS=20.64 PD=30.66 PS=25.72  postlayout=1
M10 PAD 8 VSSO VSSO n5v L=0.6 W=24 AD=79.92 AS=20.64 PD=30.66 PS=25.72  postlayout=1
M11 PAD 8 VSSO VSSO n5v L=0.6 W=24 AD=79.92 AS=20.64 PD=30.66 PS=25.72  postlayout=1
M12 PAD 8 VSSO VSSO n5v L=0.6 W=24 AD=79.92 AS=20.64 PD=30.66 PS=25.72  postlayout=1
M13 PAD 8 VSSO VSSO n5v L=0.6 W=24 AD=79.92 AS=20.64 PD=30.66 PS=25.72  postlayout=1
M14 PAD 8 VSSO VSSO n5v L=0.6 W=24 AD=79.92 AS=20.64 PD=30.66 PS=25.72  postlayout=1
M15 PAD 8 VSSO VSSO n5v L=0.6 W=24 AD=79.92 AS=20.64 PD=30.66 PS=25.72  postlayout=1
M16 PAD 8 VSSO VSSO n5v L=0.6 W=24 AD=79.92 AS=32.88 PD=30.66 PS=50.74  postlayout=1
D84 VSSO VDDO dnwell33  AREA=3111.53 PJ=1619.48
M25 PAD 15 VSS VSS n5v L=0.6 W=24 AD=79.92 AS=32.88 PD=30.66 PS=50.74  postlayout=1
M26 PAD 15 VSS VSS n5v L=0.6 W=24 AD=79.92 AS=20.64 PD=30.66 PS=25.72  postlayout=1
M27 PAD 15 VSS VSS n5v L=0.6 W=24 AD=79.92 AS=20.64 PD=30.66 PS=25.72  postlayout=1
M28 PAD 15 VSS VSS n5v L=0.6 W=24 AD=79.92 AS=20.64 PD=30.66 PS=25.72  postlayout=1
M29 PAD 15 VSS VSS n5v L=0.6 W=24 AD=79.92 AS=20.64 PD=30.66 PS=25.72  postlayout=1
M30 PAD 15 VSS VSS n5v L=0.6 W=24 AD=79.92 AS=20.64 PD=30.66 PS=25.72  postlayout=1
M31 PAD 15 VSS VSS n5v L=0.6 W=24 AD=79.92 AS=20.64 PD=30.66 PS=25.72  postlayout=1
M32 PAD 15 VSS VSS n5v L=0.6 W=24 AD=79.92 AS=20.64 PD=30.66 PS=25.72  postlayout=1
M33 PAD 15 VSS VSS n5v L=0.6 W=24 AD=79.92 AS=20.64 PD=30.66 PS=25.72  postlayout=1
M34 PAD 15 VSS VSS n5v L=0.6 W=24 AD=79.92 AS=20.64 PD=30.66 PS=25.72  postlayout=1
M35 PAD 15 VSS VSS n5v L=0.6 W=24 AD=79.92 AS=20.64 PD=30.66 PS=25.72  postlayout=1
M36 PAD 15 VSS VSS n5v L=0.6 W=24 AD=79.92 AS=20.64 PD=30.66 PS=25.72  postlayout=1
M37 PAD 15 VSS VSS n5v L=0.6 W=24 AD=79.92 AS=20.64 PD=30.66 PS=25.72  postlayout=1
M38 PAD 15 VSS VSS n5v L=0.6 W=24 AD=79.92 AS=20.64 PD=30.66 PS=25.72  postlayout=1
M39 PAD 15 VSS VSS n5v L=0.6 W=24 AD=79.92 AS=20.64 PD=30.66 PS=25.72  postlayout=1
M40 PAD 15 VSS VSS n5v L=0.6 W=24 AD=79.92 AS=32.88 PD=30.66 PS=50.74  postlayout=1
D85 VSS VDDO dnwell33  AREA=3111.53 PJ=1619.48
.ends
*
*
* File: PAL_NA_18.sp
* Created: Sun Feb 12 14:11:56 2023
* Program "Calibre xRC"
* Version "v2022.4_16.8"
*
.options scale=1u
.SUBCKT PAL_NA_18 PAD VDDO VSSO VSS VDD PADR
*.PININFO PAD:B VDDO:B VSSO:B VSS:B VDD:B PADR:B

M16 VSS 7 6 VSS n18 L=0.18 W=20 AD=7 AS=10.8 PD=20.7 PS=41.08 postlayout=1
M17 PADR 10 VSS VSS n18 L=0.25 W=20 AD=8 AS=7 PD=20.8 PS=20.7 postlayout=1
M18 PADR 10 VSS VSS n18 L=0.25 W=20 AD=8 AS=11 PD=20.8 PS=41.1 postlayout=1
M35 VSSO 12 14 VSSO n18 L=0.18 W=20 AD=12.4 AS=10.8 PD=41.24 PS=41.08  postlayout=1
M56 PADR 13 VMAX VMAX p18 L=0.18 W=15 AD=5.55 AS=8.1 PD=15.74 PS=31.08  postlayout=1
M57 PADR 13 VMAX VMAX p18 L=0.18 W=15 AD=5.55 AS=5.55 PD=15.74 PS=15.74  postlayout=1
M58 VDD PADR VMAX VMAX p18 L=0.18 W=15 AD=5.25 AS=5.55 PD=15.7 PS=15.74  postlayout=1
M59 VDD PADR VMAX VMAX p18 L=0.18 W=15 AD=5.25 AS=5.55 PD=15.7 PS=15.74  postlayout=1
M60 15 9 VMAX VMAX p18 L=0.18 W=15 AD=5.55 AS=5.55 PD=15.74 PS=15.74  postlayout=1
M61 15 9 VMAX VMAX p18 L=0.18 W=15 AD=5.55 AS=9.3 PD=15.74 PS=31.24 postlayout=1
M62 VMAX VMAX VDD VMAX p18 L=0.18 W=10 AD=5.4 AS=6.2 PD=21.08 PS=21.24  postlayout=1
XR63 7 VMAX VSS rnmpoly3t w=3 l=7
XR64 VSS 9 VSS rnmpoly3t w=3 l=7
XR65 VSS 10 VSS rnmpoly3t w=3 l=7
XR66 PADR PAD VSS rnmpoly3t w=5 l=13
XR67 12 VMAX VSSO rnmpoly3t w=3 l=7
XR68 VDD 13 VSSO rnmpoly3t w=3 l=7
XD79 VSSO VSS dpnwcpl  AREA=22.42 PJ=32.5314 nf=1
XD80 VSSO VSS dpnwcpl  AREA=22.42 PJ=32.5314 nf=1
XD81 VSSO VSS dpnwcpl  AREA=22.42 PJ=32.5314 nf=1
XD82 VSSO VSS dpnwcpl  AREA=22.42 PJ=32.5314 nf=1
XD83 VSSO VSS dpnwcpl  AREA=22.42 PJ=32.5314 nf=1
XD84 VSSO VSS dpnwcpl  AREA=22.42 PJ=32.5314 nf=1
XD85 VSSO VSS dpnwcpl  AREA=22.42 PJ=32.5314 nf=1
XD86 VSS VSSO dpnwcpl  AREA=22.42 PJ=32.5314 nf=1
XD87 VSS VSSO dpnwcpl  AREA=22.42 PJ=32.5314 nf=1
XD88 VSS VSSO dpnwcpl  AREA=22.42 PJ=32.5314 nf=1
XD89 VSS VSSO dpnwcpl  AREA=22.42 PJ=32.5314 nf=1
XD90 VSS VSSO dpnwcpl  AREA=22.42 PJ=32.5314 nf=1
XD91 VSS VSSO dpnwcpl  AREA=22.42 PJ=32.5314 nf=1
XD92 VSS VSSO dpnwcpl  AREA=22.42 PJ=32.5314 nf=1
D69 VSS VDD dnwell33  AREA=2605.22 PJ=1496.07
D70 VSSO VDD dnwell33  AREA=2605.22 PJ=1496.07
D71 VSS VDD dnwell33  AREA=2605.22 PJ=1496.07
D72 VSS VDD dnwell33  AREA=2605.22 PJ=1496.07
D73 VSSO VSS dnwell33  AREA=637.09 PJ=105.44
D74 VSS VSSO dnwell33  AREA=637.09 PJ=105.44
D75 VSSO VDD dnwell33  AREA=2605.22 PJ=1496.07
D77 VSS VMAX dnwell33  AREA=2322.17 PJ=218.15
D76 VSSO VDD dnwell33  AREA=2605.22 PJ=1496.07
D78 VSS VDD dnwell33  AREA=2605.22 PJ=1496.07
M0 PAD 6 VSS VSS n18 L=0.25 W=24 AD=79.92 AS=32.88 PD=30.66 PS=50.74  postlayout=1
M1 PAD 6 VSS VSS n18 L=0.25 W=24 AD=79.92 AS=20.64 PD=30.66 PS=25.72  postlayout=1
M2 PAD 6 VSS VSS n18 L=0.25 W=24 AD=79.92 AS=20.64 PD=30.66 PS=25.72  postlayout=1
M3 PAD 6 VSS VSS n18 L=0.25 W=24 AD=79.92 AS=20.64 PD=30.66 PS=25.72  postlayout=1
M4 PAD 6 VSS VSS n18 L=0.25 W=24 AD=79.92 AS=20.64 PD=30.66 PS=25.72  postlayout=1
M5 PAD 6 VSS VSS n18 L=0.25 W=24 AD=79.92 AS=20.64 PD=30.66 PS=25.72  postlayout=1
M6 PAD 6 VSS VSS n18 L=0.25 W=24 AD=79.92 AS=20.64 PD=30.66 PS=25.72  postlayout=1
M7 PAD 6 VSS VSS n18 L=0.25 W=24 AD=79.92 AS=20.64 PD=30.66 PS=25.72  postlayout=1
M8 PAD 6 VSS VSS n18 L=0.25 W=24 AD=79.92 AS=20.64 PD=30.66 PS=25.72  postlayout=1
M9 PAD 6 VSS VSS n18 L=0.25 W=24 AD=79.92 AS=20.64 PD=30.66 PS=25.72  postlayout=1
M10 PAD 6 VSS VSS n18 L=0.25 W=24 AD=79.92 AS=20.64 PD=30.66 PS=25.72  postlayout=1
M11 PAD 6 VSS VSS n18 L=0.25 W=24 AD=79.92 AS=20.64 PD=30.66 PS=25.72  postlayout=1
M12 PAD 6 VSS VSS n18 L=0.25 W=24 AD=79.92 AS=20.64 PD=30.66 PS=25.72  postlayout=1
M13 PAD 6 VSS VSS n18 L=0.25 W=24 AD=79.92 AS=20.64 PD=30.66 PS=25.72  postlayout=1
M14 PAD 6 VSS VSS n18 L=0.25 W=24 AD=79.92 AS=20.64 PD=30.66 PS=25.72  postlayout=1
M15 PAD 6 VSS VSS n18 L=0.25 W=24 AD=79.92 AS=32.88 PD=30.66 PS=50.74  postlayout=1
M19 PAD 14 VSSO VSSO n18 L=0.25 W=24 AD=79.92 AS=32.88 PD=30.66 PS=50.74  postlayout=1
M20 PAD 14 VSSO VSSO n18 L=0.25 W=24 AD=79.92 AS=20.64 PD=30.66 PS=25.72  postlayout=1
M21 PAD 14 VSSO VSSO n18 L=0.25 W=24 AD=79.92 AS=20.64 PD=30.66 PS=25.72  postlayout=1
M22 PAD 14 VSSO VSSO n18 L=0.25 W=24 AD=79.92 AS=20.64 PD=30.66 PS=25.72  postlayout=1
M23 PAD 14 VSSO VSSO n18 L=0.25 W=24 AD=79.92 AS=20.64 PD=30.66 PS=25.72  postlayout=1
M24 PAD 14 VSSO VSSO n18 L=0.25 W=24 AD=79.92 AS=20.64 PD=30.66 PS=25.72  postlayout=1
M25 PAD 14 VSSO VSSO n18 L=0.25 W=24 AD=79.92 AS=20.64 PD=30.66 PS=25.72  postlayout=1
M26 PAD 14 VSSO VSSO n18 L=0.25 W=24 AD=79.92 AS=20.64 PD=30.66 PS=25.72  postlayout=1
M27 PAD 14 VSSO VSSO n18 L=0.25 W=24 AD=79.92 AS=20.64 PD=30.66 PS=25.72  postlayout=1
M28 PAD 14 VSSO VSSO n18 L=0.25 W=24 AD=79.92 AS=20.64 PD=30.66 PS=25.72  postlayout=1
M29 PAD 14 VSSO VSSO n18 L=0.25 W=24 AD=79.92 AS=20.64 PD=30.66 PS=25.72  postlayout=1
M30 PAD 14 VSSO VSSO n18 L=0.25 W=24 AD=79.92 AS=20.64 PD=30.66 PS=25.72  postlayout=1
M31 PAD 14 VSSO VSSO n18 L=0.25 W=24 AD=79.92 AS=20.64 PD=30.66 PS=25.72  postlayout=1
M32 PAD 14 VSSO VSSO n18 L=0.25 W=24 AD=79.92 AS=20.64 PD=30.66 PS=25.72  postlayout=1
M33 PAD 14 VSSO VSSO n18 L=0.25 W=24 AD=79.92 AS=20.64 PD=30.66 PS=25.72  postlayout=1
M34 PAD 14 VSSO VSSO n18 L=0.25 W=24 AD=79.92 AS=32.88 PD=30.66 PS=50.74  postlayout=1
M36 PAD 15 VDD VMAX p18 L=0.25 W=20.8 AD=39.728 AS=28.496 PD=24.62 PS=44.34  postlayout=1
M37 PAD 15 VDD VMAX p18 L=0.25 W=20.8 AD=39.728 AS=17.888 PD=24.62 PS=22.52  postlayout=1
M38 PAD 15 VDD VMAX p18 L=0.25 W=20.8 AD=39.728 AS=17.888 PD=24.62 PS=22.52  postlayout=1
M39 PAD 15 VDD VMAX p18 L=0.25 W=20.8 AD=39.728 AS=17.888 PD=24.62 PS=22.52  postlayout=1
M40 PAD 15 VDD VMAX p18 L=0.25 W=20.8 AD=39.728 AS=17.888 PD=24.62 PS=22.52  postlayout=1
M41 PAD 15 VDD VMAX p18 L=0.25 W=20.8 AD=39.728 AS=17.888 PD=24.62 PS=22.52  postlayout=1
M42 PAD 15 VDD VMAX p18 L=0.25 W=20.8 AD=39.728 AS=17.888 PD=24.62 PS=22.52  postlayout=1
M43 PAD 15 VDD VMAX p18 L=0.25 W=20.8 AD=39.728 AS=17.888 PD=24.62 PS=22.52  postlayout=1
M44 PAD 15 VDD VMAX p18 L=0.25 W=20.8 AD=39.728 AS=17.888 PD=24.62 PS=22.52  postlayout=1
M45 PAD 15 VDD VMAX p18 L=0.25 W=20.8 AD=39.728 AS=17.888 PD=24.62 PS=22.52  postlayout=1
M46 PAD 15 VDD VMAX p18 L=0.25 W=20.8 AD=39.728 AS=17.888 PD=24.62 PS=22.52  postlayout=1
M47 PAD 15 VDD VMAX p18 L=0.25 W=20.8 AD=39.728 AS=17.888 PD=24.62 PS=22.52  postlayout=1
M48 PAD 15 VDD VMAX p18 L=0.25 W=20.8 AD=39.728 AS=17.888 PD=24.62 PS=22.52  postlayout=1
M49 PAD 15 VDD VMAX p18 L=0.25 W=20.8 AD=39.728 AS=17.888 PD=24.62 PS=22.52  postlayout=1
M50 PAD 15 VDD VMAX p18 L=0.25 W=20.8 AD=39.728 AS=17.888 PD=24.62 PS=22.52  postlayout=1
M51 PAD 15 VDD VMAX p18 L=0.25 W=20.8 AD=39.728 AS=17.888 PD=24.62 PS=22.52  postlayout=1
M52 PAD 15 VDD VMAX p18 L=0.25 W=20.8 AD=39.728 AS=17.888 PD=24.62 PS=22.52  postlayout=1
M53 PAD 15 VDD VMAX p18 L=0.25 W=20.8 AD=39.728 AS=17.888 PD=24.62 PS=22.52  postlayout=1
M54 PAD 15 VDD VMAX p18 L=0.25 W=20.8 AD=39.728 AS=17.888 PD=24.62 PS=22.52  postlayout=1
M55 PAD 15 VDD VMAX p18 L=0.25 W=20.8 AD=39.728 AS=28.496 PD=24.62 PS=44.34  postlayout=1
.ends
*
*
* File: PAN_50_NA.sp
* Created: Sun Feb 12 14:12:26 2023
* Program "Calibre xRC"
* Version "v2022.4_16.8"
*
.options scale=1u
.SUBCKT PAN_50_NA PAD VDDO VSS VDD VSSO PADR
*.PININFO PAD:B VDDO:B VSS:B VDD:B VSSO:B PADR:B

M32 VSSO 12 PADR PADR n5v L=0.6 W=20 AD=6.2 AS=10.8 PD=20.62 PS=41.08
M33 VSSO 12 PADR PADR n5v L=0.6 W=20 AD=6.2 AS=6.2 PD=20.62 PS=20.62
M34 VSS 10 PADR PADR n5v L=0.6 W=20 AD=6.2 AS=6.2 PD=20.62 PS=20.62
M35 VSS 10 PADR PADR n5v L=0.6 W=20 AD=6.2 AS=10.8 PD=20.62 PS=41.08
XR36 7 VSS VSS rnmpoly3t w=3 l=7
XR37 PAD 9 VSSO rnmpoly3t w=2 l=40
XR38 10 PADR VSSO rnmpoly3t w=2 l=40
XR39 PAD 8 VSSO rnmpoly3t w=2 l=40
XR40 12 PADR VSSO rnmpoly3t w=2 l=40
XR41 VSSO 6 VSSO rnmpoly3t w=3 l=7
XR42 PAD PADR VSSO rnmpoly3t w=5 l=13
XD92 VSS VSSO dnpwcpl5  AREA=14.92 PJ=22.5314 nf=1
XD93 VSS VSSO dnpwcpl5  AREA=14.92 PJ=22.5314 nf=1
XD94 VSS VSSO dnpwcpl5  AREA=14.92 PJ=22.5314 nf=1
XD95 VSS VSSO dnpwcpl5  AREA=14.92 PJ=22.5314 nf=1
XD96 VSS VSSO dnpwcpl5  AREA=14.92 PJ=22.5314 nf=1
XD97 VSS VSSO dnpwcpl5  AREA=14.92 PJ=22.5314 nf=1
XD98 VSS VSSO dnpwcpl5  AREA=14.92 PJ=22.5314 nf=1
XD99 VSS VSSO dnpwcpl5  AREA=14.92 PJ=22.5314 nf=1
XD100 VSS VSSO dnpwcpl5  AREA=14.92 PJ=22.5314 nf=1
XD101 VSS VSSO dnpwcpl5  AREA=14.92 PJ=22.5314 nf=1
XD102 VSSO VSS dnpwcpl5  AREA=14.92 PJ=22.5314 nf=1
XD103 VSSO VSS dnpwcpl5  AREA=14.92 PJ=22.5314 nf=1
XD104 VSSO VSS dnpwcpl5  AREA=14.92 PJ=22.5314 nf=1
XD105 VSSO VSS dnpwcpl5  AREA=14.92 PJ=22.5314 nf=1
XD106 VSSO VSS dnpwcpl5  AREA=14.92 PJ=22.5314 nf=1
XD107 VSSO VSS dnpwcpl5  AREA=14.92 PJ=22.5314 nf=1
XD108 VSSO VSS dnpwcpl5  AREA=14.92 PJ=22.5314 nf=1
XD109 VSSO VSS dnpwcpl5  AREA=14.92 PJ=22.5314 nf=1
XD110 VSSO VSS dnpwcpl5  AREA=14.92 PJ=22.5314 nf=1
XD111 VSSO VSS dnpwcpl5  AREA=14.92 PJ=22.5314 nf=1
D43 PAD VDDO ddwnpw18  AREA=2637.84 PJ=229.76
D44 PAD VDDO ddwnpw18  AREA=8135.55 PJ=388.55
D45 PAD VDDO ddwnpw18  AREA=2637.84 PJ=229.76
D46 VSS VDDO ddwnpw18  AREA=200.2 PJ=67.4
D47 VSS VDDO ddwnpw18  AREA=1112.14 PJ=148.04
D48 VSSO VDDO ddwnpw18  AREA=1112.14 PJ=148.04
D49 VSSO VDDO ddwnpw18  AREA=2116.56 PJ=272.41
D50 PADR VDDO ddwnpw18  AREA=244.322 PJ=70.2
D51 VSS VDDO ddwnps18  AREA=21532.2 PJ=643.31
M0 VSSO 8 PAD PAD n5v L=0.6 W=24 AD=79.92 AS=32.88 PD=30.66 PS=50.74
M1 VSSO 8 PAD PAD n5v L=0.6 W=24 AD=79.92 AS=20.64 PD=30.66 PS=25.72
M2 VSSO 8 PAD PAD n5v L=0.6 W=24 AD=79.92 AS=20.64 PD=30.66 PS=25.72
M3 VSSO 8 PAD PAD n5v L=0.6 W=24 AD=79.92 AS=20.64 PD=30.66 PS=25.72
M4 VSSO 8 PAD PAD n5v L=0.6 W=24 AD=79.92 AS=20.64 PD=30.66 PS=25.72
M5 VSSO 8 PAD PAD n5v L=0.6 W=24 AD=79.92 AS=20.64 PD=30.66 PS=25.72
M6 VSSO 8 PAD PAD n5v L=0.6 W=24 AD=79.92 AS=20.64 PD=30.66 PS=25.72
M7 VSSO 8 PAD PAD n5v L=0.6 W=24 AD=79.92 AS=20.64 PD=30.66 PS=25.72
M8 VSSO 8 PAD PAD n5v L=0.6 W=24 AD=79.92 AS=20.64 PD=30.66 PS=25.72
M9 VSSO 8 PAD PAD n5v L=0.6 W=24 AD=79.92 AS=20.64 PD=30.66 PS=25.72
M10 VSSO 8 PAD PAD n5v L=0.6 W=24 AD=79.92 AS=20.64 PD=30.66 PS=25.72
M11 VSSO 8 PAD PAD n5v L=0.6 W=24 AD=79.92 AS=20.64 PD=30.66 PS=25.72
M12 VSSO 8 PAD PAD n5v L=0.6 W=24 AD=79.92 AS=20.64 PD=30.66 PS=25.72
M13 VSSO 8 PAD PAD n5v L=0.6 W=24 AD=79.92 AS=20.64 PD=30.66 PS=25.72
M14 VSSO 8 PAD PAD n5v L=0.6 W=24 AD=79.92 AS=20.64 PD=30.66 PS=25.72
M15 VSSO 8 PAD PAD n5v L=0.6 W=24 AD=79.92 AS=32.88 PD=30.66 PS=50.74
M16 VSS 9 PAD PAD n5v L=0.6 W=24 AD=79.92 AS=32.88 PD=30.66 PS=50.74
M17 VSS 9 PAD PAD n5v L=0.6 W=24 AD=79.92 AS=20.64 PD=30.66 PS=25.72
M18 VSS 9 PAD PAD n5v L=0.6 W=24 AD=79.92 AS=20.64 PD=30.66 PS=25.72
M19 VSS 9 PAD PAD n5v L=0.6 W=24 AD=79.92 AS=20.64 PD=30.66 PS=25.72
M20 VSS 9 PAD PAD n5v L=0.6 W=24 AD=79.92 AS=20.64 PD=30.66 PS=25.72
M21 VSS 9 PAD PAD n5v L=0.6 W=24 AD=79.92 AS=20.64 PD=30.66 PS=25.72
M22 VSS 9 PAD PAD n5v L=0.6 W=24 AD=79.92 AS=20.64 PD=30.66 PS=25.72
M23 VSS 9 PAD PAD n5v L=0.6 W=24 AD=79.92 AS=20.64 PD=30.66 PS=25.72
M24 VSS 9 PAD PAD n5v L=0.6 W=24 AD=79.92 AS=20.64 PD=30.66 PS=25.72
M25 VSS 9 PAD PAD n5v L=0.6 W=24 AD=79.92 AS=20.64 PD=30.66 PS=25.72
M26 VSS 9 PAD PAD n5v L=0.6 W=24 AD=79.92 AS=20.64 PD=30.66 PS=25.72
M27 VSS 9 PAD PAD n5v L=0.6 W=24 AD=79.92 AS=20.64 PD=30.66 PS=25.72
M28 VSS 9 PAD PAD n5v L=0.6 W=24 AD=79.92 AS=20.64 PD=30.66 PS=25.72
M29 VSS 9 PAD PAD n5v L=0.6 W=24 AD=79.92 AS=20.64 PD=30.66 PS=25.72
M30 VSS 9 PAD PAD n5v L=0.6 W=24 AD=79.92 AS=20.64 PD=30.66 PS=25.72
M31 VSS 9 PAD PAD n5v L=0.6 W=24 AD=79.92 AS=32.88 PD=30.66 PS=50.74
M52 PAD PAD 13 PAD n5v L=0.6 W=48 AD=74.88 AS=6 PD=99.12 PS=48.25
M53 13 6 VDDO PAD n5v L=0.6 W=48 AD=6 AS=159.84 PD=48.25 PS=54.66
M54 14 6 VDDO PAD n5v L=0.6 W=48 AD=6 AS=159.84 PD=48.25 PS=54.66
M55 PAD PAD 14 PAD n5v L=0.6 W=48 AD=37.44 AS=6 PD=49.56 PS=48.25
M56 PAD PAD 15 PAD n5v L=0.6 W=48 AD=37.44 AS=6 PD=49.56 PS=48.25
M57 15 6 VDDO PAD n5v L=0.6 W=48 AD=6 AS=159.84 PD=48.25 PS=54.66
M58 16 6 VDDO PAD n5v L=0.6 W=48 AD=6 AS=159.84 PD=48.25 PS=54.66
M59 PAD PAD 16 PAD n5v L=0.6 W=48 AD=37.44 AS=6 PD=49.56 PS=48.25
M60 PAD PAD 17 PAD n5v L=0.6 W=48 AD=37.44 AS=6 PD=49.56 PS=48.25
M61 17 6 VDDO PAD n5v L=0.6 W=48 AD=6 AS=159.84 PD=48.25 PS=54.66
M62 18 6 VDDO PAD n5v L=0.6 W=48 AD=6 AS=159.84 PD=48.25 PS=54.66
M63 PAD PAD 18 PAD n5v L=0.6 W=48 AD=37.44 AS=6 PD=49.56 PS=48.25
M64 PAD PAD 19 PAD n5v L=0.6 W=48 AD=37.44 AS=6 PD=49.56 PS=48.25
M65 19 6 VDDO PAD n5v L=0.6 W=48 AD=6 AS=159.84 PD=48.25 PS=54.66
M66 20 6 VDDO PAD n5v L=0.6 W=48 AD=6 AS=159.84 PD=48.25 PS=54.66
M67 PAD PAD 20 PAD n5v L=0.6 W=48 AD=37.44 AS=6 PD=49.56 PS=48.25
M68 PAD PAD 21 PAD n5v L=0.6 W=48 AD=37.44 AS=6 PD=49.56 PS=48.25
M69 21 6 VDDO PAD n5v L=0.6 W=48 AD=6 AS=159.84 PD=48.25 PS=54.66
M70 22 6 VDDO PAD n5v L=0.6 W=48 AD=6 AS=159.84 PD=48.25 PS=54.66
M71 PAD PAD 22 PAD n5v L=0.6 W=48 AD=74.88 AS=6 PD=99.12 PS=48.25
M72 PAD PAD 23 PAD n5v L=0.6 W=48 AD=74.88 AS=6 PD=99.12 PS=48.25
M73 23 7 VDD PAD n5v L=0.6 W=48 AD=6 AS=159.84 PD=48.25 PS=54.66
M74 24 7 VDD PAD n5v L=0.6 W=48 AD=6 AS=159.84 PD=48.25 PS=54.66
M75 PAD PAD 24 PAD n5v L=0.6 W=48 AD=37.44 AS=6 PD=49.56 PS=48.25
M76 PAD PAD 25 PAD n5v L=0.6 W=48 AD=37.44 AS=6 PD=49.56 PS=48.25
M77 25 7 VDD PAD n5v L=0.6 W=48 AD=6 AS=159.84 PD=48.25 PS=54.66
M78 26 7 VDD PAD n5v L=0.6 W=48 AD=6 AS=159.84 PD=48.25 PS=54.66
M79 PAD PAD 26 PAD n5v L=0.6 W=48 AD=37.44 AS=6 PD=49.56 PS=48.25
M80 PAD PAD 27 PAD n5v L=0.6 W=48 AD=37.44 AS=6 PD=49.56 PS=48.25
M81 27 7 VDD PAD n5v L=0.6 W=48 AD=6 AS=159.84 PD=48.25 PS=54.66
M82 28 7 VDD PAD n5v L=0.6 W=48 AD=6 AS=159.84 PD=48.25 PS=54.66
M83 PAD PAD 28 PAD n5v L=0.6 W=48 AD=37.44 AS=6 PD=49.56 PS=48.25
M84 PAD PAD 29 PAD n5v L=0.6 W=48 AD=37.44 AS=6 PD=49.56 PS=48.25
M85 29 7 VDD PAD n5v L=0.6 W=48 AD=6 AS=159.84 PD=48.25 PS=54.66
M86 30 7 VDD PAD n5v L=0.6 W=48 AD=6 AS=159.84 PD=48.25 PS=54.66
M87 PAD PAD 30 PAD n5v L=0.6 W=48 AD=37.44 AS=6 PD=49.56 PS=48.25
M88 PAD PAD 31 PAD n5v L=0.6 W=48 AD=37.44 AS=6 PD=49.56 PS=48.25
M89 31 7 VDD PAD n5v L=0.6 W=48 AD=6 AS=159.84 PD=48.25 PS=54.66
M90 32 7 VDD PAD n5v L=0.6 W=48 AD=6 AS=159.84 PD=48.25 PS=54.66
M91 PAD PAD 32 PAD n5v L=0.6 W=48 AD=74.88 AS=6 PD=99.12 PS=48.25
.ends
*
*
* File: PIOH_18_18.sp
* Created: Sun Feb 12 14:13:14 2023
* Program "Calibre xRC"
* Version "v2022.4_16.8"
*
.options scale=1u
.SUBCKT PIOH_18_18 PAD VSSO VSS VDD VDDO SCHM_ON EN IE VDDO_OK I PULL_UP_DOWN PULL_ON TTL_ON DRIVE_STR VDD_OK CIN
*.PININFO PAD:B VSSO:B VSS:B VDD:B VDDO:B SCHM_ON:I EN:I IE:I VDDO_OK:I I:I PULL_UP_DOWN:I PULL_ON:I TTL_ON:I DRIVE_STR:I VDD_OK:I CIN:O
