* File: pc3t02.dist.sp.pex
* Created: Sun Jul  4 12:43:53 2010
* Program "Calibre xRC"
* Version "v2008.4_19.14"
* Nominal Temperature: 27C
* Circuit Temperature: 27C
* 
.subckt PM_PC3T02%PAD 21 50 79 108 137 166 218 242 266 290 320 326 389 428 452
+ 459
c0 467 0 28.4309f
c1 460 0 83.1329f
c2 459 0 64.3341f
c3 456 0 159.215f
c4 451 0 0.991473f
c5 444 0 9.95779f
c6 434 0 13.0868f
c7 425 0 0.117887f
c8 423 0 213.085f
c9 408 0 15.3329f
c10 397 0 46.9214f
c11 392 0 65.4578f
c12 390 0 15.8897f
c13 389 0 1.04909f
c14 388 0 3.88476f
c15 326 0 13.3926f
c16 320 0 13.3816f
c17 290 0 13.3817f
c18 266 0 13.3917f
c19 242 0 13.6577f
c20 218 0 13.378f
c21 176 0 7.52869f
c22 166 0 2.98552f
c23 149 0 6.78371f
c24 137 0 2.98621f
c25 120 0 6.78371f
c26 108 0 2.98555f
c27 91 0 6.78371f
c28 79 0 2.98555f
c29 62 0 6.78371f
c30 50 0 2.98555f
c31 33 0 6.78371f
c32 21 0 2.98542f
c33 4 0 6.78371f
r34 467 468 0.118407 
r35 466 467 0.118407 
r36 465 466 0.056883 
r37 464 465 0.061524 
r38 463 464 0.118407 
r39 462 463 0.0830354 
r40 461 462 0.0353716 
r41 459 460 0.0124825 
r42 457 459 0.000593149 
r43 456 457 0.0669731 
r44 451 452 0.00916 
r45 444 462 0.0545455 
r46 434 465 0.015 
r47 425 428 0.00916 
r48 425 451 2 
r49 423 434 0.0264274 
r50 421 423 0.147454 
r51 421 422 0.0288462 
r52 415 416 0.00752787 
r53 414 415 0.021023 
r54 412 414 0.000537705 
r55 412 456 0.00162999 
r56 410 412 0.000537705 
r57 408 410 0.0285508 
r58 399 451 0.1388 
r59 398 399 0.132996 
r60 397 398 0.0171733 
r61 394 395 0.0171733 
r62 393 394 0.0171733 
r63 392 393 0.0171733 
r64 391 397 0.0142401 
r65 391 395 0.00293318 
r66 390 422 0.00646891 
r67 390 392 0.00818451 
r68 388 444 0.202116 
r69 388 389 0.0147368 
r70 315 320 0.0072093 
r71 392 315 0.0566038 
r72 313 326 0.0072093 
r73 398 313 0.0566038 
r74 286 290 0.0072093 
r75 397 286 0.0566038 
r76 262 266 0.0072093 
r77 395 262 0.0566038 
r78 238 242 0.0072093 
r79 394 238 0.0566038 
r80 214 218 0.0072093 
r81 393 214 0.0566038 
r82 194 197 0.0022831 
r83 416 194 0.0375475 
r84 194 457 0.00547945 
r85 414 193 0.00210084 
r86 191 193 0.000537705 
r87 410 191 0.00210084 
r88 193 182 0.0105115 
r89 415 182 0.00712251 
r90 178 197 0.0187738 
r91 182 178 0.00376393 
r92 416 178 0.00712251 
r93 176 191 0.0142754 
r94 408 176 0.00356125 
r95 460 173 0.345778 
r96 172 468 0.0220132 
r97 172 173 0.319822 
r98 166 153 0.00249413 
r99 173 153 0.0425532 
r100 149 166 0.00249413 
r101 173 149 0.0425532 
r102 460 144 0.345778 
r103 143 467 0.0220132 
r104 143 144 0.319822 
r105 137 124 0.00249413 
r106 144 124 0.0425532 
r107 120 137 0.00249413 
r108 144 120 0.0425532 
r109 460 115 0.345778 
r110 114 466 0.0220132 
r111 114 115 0.319822 
r112 108 95 0.00249413 
r113 115 95 0.0425532 
r114 91 108 0.00249413 
r115 115 91 0.0425532 
r116 460 86 0.345778 
r117 85 464 0.0220132 
r118 85 86 0.319822 
r119 79 66 0.00249413 
r120 86 66 0.0425532 
r121 62 79 0.00249413 
r122 86 62 0.0425532 
r123 460 57 0.345778 
r124 56 463 0.0220132 
r125 56 57 0.319822 
r126 50 37 0.00249413 
r127 57 37 0.0425532 
r128 33 50 0.00249413 
r129 57 33 0.0425532 
r130 460 28 0.345778 
r131 27 461 0.0220132 
r132 27 28 0.319822 
r133 21 8 0.00249413 
r134 28 8 0.0425532 
r135 4 21 0.00249413 
r136 28 4 0.0425532 
.ends

.subckt PM_PC3T02%noxref_2 8 18
c0 20 0 4.82415f
c1 18 0 0.993329f
c2 8 0 6.70932f
r3 18 20 0.158105 
r4 20 8 0.158526 
.ends

.subckt PM_PC3T02%net_m32_VSSO_res 45 64 71 76 83 115
c0 115 0 0.73297f
c1 111 0 0.808415f
c2 109 0 0.0941699f
c3 93 0 0.0628754f
c4 87 0 0.235615f
c5 83 0 0.519409f
c6 81 0 0.19588f
c7 80 0 0.135544f
c8 76 0 0.519409f
c9 71 0 0.519409f
c10 69 0 0.102851f
c11 68 0 0.162435f
c12 64 0 0.733874f
c13 45 0 0.380483f
c14 44 0 0.205538f
c15 43 0 0.0481112f
c16 42 0 0.37934f
r17 109 111 0.0223492 
r18 106 109 0.124706 
r19 94 115 85 
r20 91 111 2.20253 
r21 90 92 6.2212 
r22 90 91 1.5553 
r23 89 90 10.0922 
r24 88 93 2.23066 
r25 87 94 3.37824 
r26 87 88 10.8571 
r27 82 93 0.93595 
r28 82 83 85 
r29 81 92 4.70046 
r30 80 93 2.23066 
r31 80 81 9 
r32 75 92 1.5553 
r33 75 76 85 
r34 70 89 1.5553 
r35 70 71 85 
r36 68 89 2.90323 
r37 68 69 10.8571 
r38 63 69 3.37824 
r39 63 64 85 
r40 44 45 0.18 
r41 106 43 0.0446983 
r42 42 44 0.0446983 
r43 42 43 0.521176 
.ends

.subckt PM_PC3T02%U27_padr 40 44 52 118 120 123 163
c0 233 0 16.1773f
c1 227 0 9.32043f
c2 223 0 15.9089f
c3 206 0 0.145078f
c4 205 0 0.0372956f
c5 204 0 0.0478417f
c6 203 0 0.0873247f
c7 200 0 6.60484f
c8 197 0 0.611623f
c9 195 0 0.153488f
c10 191 0 5.6389f
c11 189 0 0.516633f
c12 187 0 0.0693973f
c13 186 0 0.207306f
c14 185 0 0.411447f
c15 179 0 2.06622f
c16 173 0 0.540884f
c17 164 0 0.392313f
c18 163 0 1.07645f
c19 162 0 0.703354f
c20 143 0 0.432026f
c21 138 0 0.0817276f
c22 123 0 1.07226f
c23 120 0 0.577412f
c24 118 0 1.01781f
c25 111 0 0.0984887f
c26 92 0 0.134724f
c27 90 0 16.0877f
c28 85 0 0.581709f
c29 84 0 0.371236f
c30 82 0 0.10558f
c31 79 0 1.7121f
c32 78 0 0.566054f
c33 72 0 0.0460406f
c34 71 0 0.0322888f
c35 70 0 0.0767087f
c36 65 0 0.110937f
c37 62 0 0.0980321f
c38 58 0 0.315801f
c39 56 0 0.0767388f
c40 55 0 0.102686f
c41 52 0 1.30771f
c42 49 0 0.0447228f
c43 48 0 0.384784f
c44 44 0 2.28922f
c45 40 0 1.56404f
r46 233 225 0.172857 
r47 223 225 6 
r48 222 223 11.2893 
r49 206 208 3 
r50 205 206 0.109474 
r51 205 203 0.0456991 
r52 203 204 0.147143 
r53 200 233 2 
r54 198 204 0.0446983 
r55 198 200 10.3129 
r56 197 208 0.30381 
r57 193 195 0.10375 
r58 227 191 0.185079 
r59 189 191 1.2 
r60 188 189 0.482857 
r61 186 188 0.0446983 
r62 186 187 0.125714 
r63 185 187 0.0446983 
r64 184 197 0.0446983 
r65 184 185 0.407619 
r66 179 181 2.8475 
r67 172 195 0.02 
r68 172 173 0.755 
r69 168 193 0.02 
r70 162 227 0.18836 
r71 162 163 0.0147368 
r72 127 129 2.816 
r73 143 111 0.77 
r74 110 123 168.333 
r75 110 111 3.92502 
r76 105 120 51.6667 
r77 104 105 1.66667 
r78 97 118 168.333 
r79 138 97 3.6393 
r80 179 92 6 
r81 129 90 1.07733 
r82 181 90 6 
r83 181 87 0.8025 
r84 87 143 6 
r85 85 177 1.2525 
r86 85 222 6 
r87 84 138 0.7825 
r88 177 84 6 
r89 173 82 6 
r90 79 170 0.8 
r91 168 79 2.045 
r92 79 129 6 
r93 170 78 6 
r94 76 222 3.688 
r95 164 76 6 
r96 164 73 0.482667 
r97 73 127 6 
r98 72 92 0.05 
r99 68 70 0.12 
r100 68 78 0.8825 
r101 66 82 0.04375 
r102 65 66 0.02 
r103 63 65 0.10375 
r104 62 72 0.0446983 
r105 61 71 0.0338756 
r106 61 62 0.1875 
r107 58 104 1.16667 
r108 57 71 0.0338756 
r109 57 58 0.245 
r110 55 71 0.00880368 
r111 55 56 0.25 
r112 51 56 0.0446983 
r113 51 52 1.2575 
r114 50 52 1.3775 
r115 48 50 0.0447588 
r116 48 49 0.544 
r117 70 44 2.375 
r118 39 63 0.02 
r119 39 40 1.40875 
r120 38 49 0.0447588 
r121 38 40 1.3775 
.ends

.subckt PM_PC3T02%VSS 805 827 836 858 863 874 877 883
c0 883 0 90.8904f
c1 874 0 55.0992f
c2 861 0 2.37405f
c3 858 0 0.00368951f
c4 855 0 1.24098f
c5 836 0 4.21667f
c6 835 0 43.6672f
c7 824 0 1.88726f
c8 816 0 15.1176f
c9 802 0 1.45501f
c10 773 0 24.8153f
c11 771 0 0.0842555f
c12 770 0 10.2548f
c13 769 0 0.0657505f
c14 768 0 7.41328f
c15 767 0 0.571035f
c16 766 0 0.184939f
c17 764 0 0.57837f
c18 763 0 0.0372194f
c19 756 0 0.144425f
c20 747 0 8.77495f
c21 745 0 0.194648f
c22 743 0 1.90581f
c23 628 0 2.46629f
c24 620 0 2.22402f
c25 612 0 1.35142f
c26 610 0 0.228409f
c27 608 0 0.276497f
c28 605 0 25.5671f
c29 599 0 0.816164f
c30 598 0 6.34069f
c31 595 0 0.0994388f
c32 592 0 2.03915f
c33 586 0 0.137389f
c34 585 0 2.48617f
c35 584 0 0.154374f
c36 583 0 2.24749f
c37 539 0 0.162892f
c38 537 0 0.721903f
c39 535 0 0.203897f
c40 510 0 2.94262f
c41 496 0 3.0577f
c42 494 0 0.031054f
c43 490 0 6.9099f
c44 489 0 0.161087f
c45 474 0 3.75184f
c46 471 0 2.9639f
r47 881 883 0.000702051 
r48 880 881 0.0832563 
r49 877 880 0.000703354 
r50 873 874 0.00318245 
r51 870 871 0.0344168 
r52 869 870 0.167059 
r53 868 869 0.128574 
r54 867 868 0.0141176 
r55 861 873 0.461538 
r56 855 858 1.28857 
r57 855 871 1.5 
r58 849 869 0.0535714 
r59 835 836 1.7665 
r60 831 873 0.00119641 
r61 871 831 0.0758524 
r62 829 831 0.428571 
r63 827 829 0.189 
r64 824 827 0.013 
r65 824 881 0.131579 
r66 820 821 0.56934 
r67 819 820 1.12447 
r68 816 819 0.628223 
r69 816 870 0.3 
r70 809 867 0.089651 
r71 863 809 0.00438684 
r72 807 809 0.428571 
r73 805 807 0.189 
r74 802 805 0.013 
r75 802 880 0.131579 
r76 836 796 2.59036 
r77 770 771 0.0338756 
r78 768 849 2.8715 
r79 768 769 0.0338756 
r80 762 771 0.0338756 
r81 761 769 0.0338756 
r82 758 771 0.00880368 
r83 758 836 0.958 
r84 757 769 0.00880368 
r85 757 836 0.986 
r86 756 764 0.0574488 
r87 766 756 0.0632911 
r88 753 763 0.0448201 
r89 750 861 1.518 
r90 749 861 0.426 
r91 747 796 1.08482 
r92 743 753 2.13041 
r93 770 622 0.733 
r94 836 622 1.93 
r95 620 789 3 
r96 617 849 1.612 
r97 763 617 1.283 
r98 617 868 1.5 
r99 615 836 1.07807 
r100 745 615 1.06072 
r101 615 628 1 
r102 789 612 0.24 
r103 820 612 1.5 
r104 622 610 3 
r105 819 610 3 
r106 608 796 3 
r107 821 608 3 
r108 605 813 1.1314 
r109 605 867 0.125 
r110 604 628 0.0075 
r111 625 604 0.056 
r112 813 604 0.24 
r113 602 767 0.102486 
r114 602 766 0.0155975 
r115 773 602 1 
r116 600 773 0.9662 
r117 600 625 0.02 
r118 599 762 0.5005 
r119 750 599 0.0446983 
r120 598 761 0.5005 
r121 749 598 0.0446983 
r122 597 620 0.830244 
r123 596 620 0.573659 
r124 595 835 1.337 
r125 743 595 0.0448201 
r126 591 592 1.37048 
r127 586 597 0.0448242 
r128 586 587 0.678222 
r129 585 592 0.0447675 
r130 585 587 0.650667 
r131 584 596 0.0446983 
r132 583 591 0.0447067 
r133 583 584 1.45854 
r134 538 539 0.147619 
r135 534 535 0.14988 
r136 747 534 0.0380723 
r137 531 533 0.143333 
r138 745 530 0.0385542 
r139 528 530 0.14506 
r140 836 527 0.159 
r141 510 836 0.159 
r142 509 539 0.02 
r143 509 527 1.247 
r144 508 535 0.02 
r145 508 510 1.243 
r146 836 507 0.192 
r147 505 836 0.192 
r148 504 505 0.342 
r149 836 504 0.192 
r150 502 836 0.192 
r151 501 502 0.342 
r152 836 501 0.192 
r153 499 836 0.192 
r154 498 499 0.342 
r155 836 498 0.192 
r156 496 836 0.192 
r157 495 538 0.02 
r158 495 507 1.214 
r159 494 537 0.04 
r160 494 496 0.243 
r161 492 534 0.02 
r162 492 537 0.938734 
r163 490 538 0.0380952 
r164 490 767 4.80524 
r165 489 764 0.555238 
r166 489 533 0.0380952 
r167 836 485 0.159 
r168 483 836 0.159 
r169 482 483 0.408 
r170 836 482 0.159 
r171 480 836 0.159 
r172 479 480 0.408 
r173 836 479 0.159 
r174 477 836 0.159 
r175 476 477 0.408 
r176 836 476 0.159 
r177 474 836 0.159 
r178 473 533 0.02 
r179 473 485 1.247 
r180 472 530 0.02 
r181 472 474 1.243 
r182 471 531 0.02 
r183 470 528 0.02 
r184 470 471 4.69271 
.ends

.subckt PM_PC3T02%U27_U69$7_gate 197 202 207 212 217 222 227 232 249
c0 379 0 0.256896f
c1 375 0 0.130993f
c2 373 0 0.469067f
c3 368 0 0.470475f
c4 363 0 0.472788f
c5 354 0 2.82662f
c6 338 0 0.46935f
c7 337 0 0.23872f
c8 336 0 0.231486f
c9 335 0 0.219244f
c10 334 0 0.304369f
c11 332 0 0.273588f
c12 330 0 0.0792102f
c13 329 0 0.329567f
c14 326 0 6.54958f
c15 320 0 4.49005f
c16 319 0 0.767959f
c17 315 0 1.18024f
c18 314 0 0.751975f
c19 310 0 1.20879f
c20 309 0 0.72468f
c21 306 0 0.157001f
c22 305 0 1.19493f
c23 304 0 0.531301f
c24 303 0 0.305366f
c25 300 0 0.136486f
c26 294 0 0.0903556f
c27 286 0 0.171215f
c28 280 0 0.680566f
c29 272 0 0.534786f
c30 264 0 0.535121f
c31 256 0 0.535687f
c32 250 0 0.306758f
c33 249 0 0.278026f
c34 241 0 0.163718f
c35 240 0 0.619504f
c36 239 0 0.172465f
c37 238 0 0.615146f
c38 237 0 0.171476f
c39 236 0 0.615146f
c40 235 0 0.171476f
c41 234 0 0.551149f
c42 232 0 3.10391f
c43 227 0 3.04446f
c44 222 0 3.04443f
c45 217 0 3.04445f
c46 212 0 3.04448f
c47 207 0 3.04452f
c48 202 0 3.04448f
c49 197 0 3.10222f
r50 340 379 0.00341463 
r51 338 340 3 
r52 333 338 0.05061 
r53 333 334 0.662857 
r54 332 338 0.05061 
r55 331 332 0.202353 
r56 329 334 0.0446983 
r57 329 330 0.352857 
r58 326 375 6 
r59 324 330 0.0448488 
r60 324 326 6.78194 
r61 321 337 0.102295 
r62 320 331 0.0487211 
r63 320 321 5.332 
r64 319 337 0.0221154 
r65 318 373 0.000487805 
r66 370 318 0.055122 
r67 317 319 0.0758231 
r68 317 318 1.5 
r69 316 336 0.100797 
r70 315 337 0.102295 
r71 315 316 1.457 
r72 314 336 0.0217567 
r73 313 368 0.00292683 
r74 365 313 0.0526829 
r75 312 314 0.078061 
r76 312 313 1.5 
r77 311 335 0.0981617 
r78 310 336 0.100797 
r79 310 311 1.492 
r80 309 335 0.0211035 
r81 308 363 0.00536585 
r82 360 308 0.0502439 
r83 307 309 0.0822179 
r84 307 308 1.5 
r85 305 335 0.0981617 
r86 305 306 1.475 
r87 304 306 0.0611952 
r88 356 303 0.0521951 
r89 302 304 0.135887 
r90 302 303 3 
r91 298 375 0.130323 
r92 297 300 0.153548 
r93 297 298 0.02 
r94 294 354 6 
r95 292 300 0.02 
r96 292 294 0.132903 
r97 291 354 3.99613 
r98 290 291 0.026898 
r99 286 290 0.10143 
r100 286 249 0.106667 
r101 241 280 1.85294 
r102 240 272 5.05882 
r103 239 272 5.05882 
r104 238 264 5.05882 
r105 237 264 5.05882 
r106 236 256 5.05882 
r107 235 256 5.05882 
r108 234 250 1.85294 
r109 229 241 3.88985 
r110 229 232 183.96 
r111 224 240 3.88985 
r112 224 227 183.96 
r113 219 239 3.88985 
r114 219 222 183.96 
r115 214 238 3.88985 
r116 214 217 183.96 
r117 209 237 3.88985 
r118 209 212 183.96 
r119 204 236 3.88985 
r120 204 207 183.96 
r121 199 235 3.88985 
r122 199 202 183.96 
r123 194 234 3.88985 
r124 194 197 183.96 
r125 280 135 0.00142683 
r126 379 135 3 
r127 272 117 0.00142683 
r128 373 117 3 
r129 264 92 0.00142683 
r130 368 92 3 
r131 272 81 0.0277856 
r132 370 81 3 
r133 256 56 0.00142683 
r134 363 56 3 
r135 264 45 0.0277856 
r136 365 45 3 
r137 250 20 0.00142683 
r138 356 20 3 
r139 256 9 0.0277856 
r140 360 9 3 
.ends

.subckt PM_PC3T02%VSSO 406 429 431 466 786 790 797 826 833 840 859 861 866 871
+ 880 886 892 898 904 913 919 928 934 940 949 955 961 970 976 988 1039 1044 1049
+ 1055
c0 1055 0 31.8029f
c1 1042 0 2.00279f
c2 1039 0 46.1091f
c3 1020 0 7.93618f
c4 1018 0 6.95936f
c5 1013 0 6.96114f
c6 1008 0 6.99704f
c7 1003 0 6.99673f
c8 998 0 6.99617f
c9 988 0 0.00391448f
c10 983 0 8.95235f
c11 976 0 0.342408f
c12 961 0 1.36597f
c13 955 0 1.40025f
c14 940 0 1.35721f
c15 934 0 1.35624f
c16 919 0 1.34294f
c17 904 0 1.19901f
c18 898 0 2.00715f
c19 892 0 0.838689f
c20 886 0 1.37238f
c21 871 0 1.38345f
c22 866 0 1.69151f
c23 864 0 0.206491f
c24 861 0 0.00104091f
c25 859 0 8.25608e-19
c26 857 0 8.96457f
c27 845 0 7.86203f
c28 839 0 1.27875f
c29 829 0 1.65707f
c30 826 0 58.2584f
c31 793 0 1.34819f
c32 790 0 10.6383f
c33 778 0 0.111147f
c34 772 0 4.5962f
c35 769 0 0.113585f
c36 768 0 0.0401265f
c37 767 0 1.53271f
c38 765 0 0.0508531f
c39 764 0 0.326639f
c40 763 0 0.69353f
c41 759 0 0.518227f
c42 753 0 0.708327f
c43 751 0 0.033832f
c44 750 0 3.2538f
c45 748 0 0.383003f
c46 747 0 0.713156f
c47 746 0 0.303464f
c48 745 0 3.27963f
c49 744 0 0.383249f
c50 743 0 1.88548f
c51 741 0 0.0583091f
c52 740 0 0.180634f
c53 739 0 0.343387f
c54 706 0 0.122915f
c55 705 0 8.91081f
c56 672 0 0.264721f
c57 668 0 7.03694f
c58 664 0 0.146306f
c59 470 0 0.108773f
c60 466 0 0.420382f
c61 451 0 0.893677f
c62 449 0 0.103654f
c63 447 0 0.228551f
c64 445 0 1.48999f
c65 444 0 0.0312995f
c66 443 0 0.347126f
c67 431 0 0.762532f
c68 429 0 0.34681f
c69 428 0 0.192908f
c70 425 0 0.0481945f
c71 424 0 0.43819f
c72 406 0 0.114597f
c73 399 0 0.120775f
c74 317 0 7.04841f
c75 284 0 14.034f
c76 234 0 14.036f
c77 184 0 14.0469f
c78 134 0 14.0469f
c79 84 0 14.0469f
c80 10 0 0.146306f
r81 1053 1055 0.00282778 
r82 1052 1053 0.355444 
r83 1049 1052 0.00283333 
r84 1044 1046 0.0211813 
r85 1042 1044 0.00325866 
r86 1036 1037 0.166203 
r87 1035 1036 0.0396791 
r88 1034 1035 0.043262 
r89 1033 1034 0.0347594 
r90 1032 1033 0.0192513 
r91 1031 1032 0.0858289 
r92 1030 1031 0.0253476 
r93 1029 1030 0.0256684 
r94 1028 1029 0.0416043 
r95 1027 1028 0.0226738 
r96 1026 1027 0.0223529 
r97 1025 1026 0.0213904 
r98 1024 1042 0.0200081 
r99 1024 1025 0.0809091 
r100 992 993 0.0140639 
r101 987 988 0.0126606 
r102 1020 985 0.0113761 
r103 983 985 0.0638298 
r104 980 1037 2 
r105 976 980 0.000380952 
r106 964 1036 0.6 
r107 961 964 0.285 
r108 958 1035 0.6 
r109 955 958 0.32 
r110 943 1034 0.6 
r111 940 943 0.36 
r112 937 1033 0.6 
r113 934 937 0.37 
r114 922 1031 0.6 
r115 919 922 0.3225 
r116 907 1030 0.6 
r117 904 907 0.325 
r118 901 1029 0.6 
r119 898 901 0.3425 
r120 895 1028 0.75 
r121 892 895 0.04 
r122 889 1027 0.6 
r123 886 889 0.365 
r124 874 1026 0.6 
r125 871 874 0.3175 
r126 868 1025 0.666667 
r127 866 868 0.96 
r128 859 987 0.013211 
r129 983 859 0.000917431 
r130 857 859 0.000913242 
r131 857 992 0.0638298 
r132 845 992 0.0113242 
r133 843 845 0.0327869 
r134 842 843 0.029258 
r135 839 842 0.0131449 
r136 839 840 0.02 
r137 836 1053 0.357143 
r138 833 836 0.21 
r139 831 1039 0.00544385 
r140 1037 831 0.0345455 
r141 829 831 1 
r142 829 833 0.445 
r143 824 826 0.00612761 
r144 824 1020 0.0327869 
r145 970 822 0.130435 
r146 822 1018 0.00301741 
r147 1015 822 0.00301741 
r148 820 822 0.0266667 
r149 820 824 0.0287785 
r150 949 819 0.130435 
r151 819 1013 0.00301741 
r152 1010 819 0.00301741 
r153 817 819 0.0266667 
r154 817 820 0.0242129 
r155 928 816 0.130435 
r156 816 1008 0.00301741 
r157 1005 816 0.00301741 
r158 814 816 0.0266667 
r159 814 817 0.0242129 
r160 813 814 0.000615582 
r161 913 812 0.130435 
r162 812 1003 0.00301741 
r163 1000 812 0.00301741 
r164 810 812 0.0266667 
r165 810 813 0.0235973 
r166 880 809 0.130435 
r167 809 998 0.00301741 
r168 995 809 0.00301741 
r169 807 809 0.0266667 
r170 807 810 0.0242129 
r171 806 842 0.02 
r172 806 807 0.0277012 
r173 843 803 0.446124 
r174 800 1052 0.357143 
r175 797 800 0.21 
r176 795 1048 0.144076 
r177 1046 795 0.0332383 
r178 793 795 1 
r179 793 797 0.445 
r180 781 864 3 
r181 778 781 0.0536842 
r182 771 778 0.02 
r183 771 772 6.41263 
r184 768 769 0.1275 
r185 767 768 0.0448391 
r186 766 767 2.75862 
r187 764 766 0.044715 
r188 764 765 0.466667 
r189 763 765 0.0450432 
r190 1048 763 1.29371 
r191 759 778 0.02 
r192 759 760 0.734737 
r193 755 988 0.230275 
r194 753 983 0.210275 
r195 751 864 0.109474 
r196 749 861 0.229041 
r197 749 750 0.0863581 
r198 747 857 0.209132 
r199 747 748 0.0863581 
r200 755 745 0.0861375 
r201 745 746 0.132033 
r202 753 744 0.0861375 
r203 751 743 0.0420103 
r204 742 743 3.01467 
r205 740 742 0.0446983 
r206 740 741 0.274667 
r207 739 741 0.0447588 
r208 706 859 0.128 
r209 705 746 0.0473573 
r210 705 859 0.126 
r211 672 706 0.0473573 
r212 750 672 0.132033 
r213 668 859 0.126 
r214 667 866 1.1475 
r215 665 859 0.128 
r216 664 665 0.0473573 
r217 664 748 0.250407 
r218 470 453 0.00693642 
r219 772 453 6 
r220 1032 451 0.75 
r221 769 449 3 
r222 466 447 0.0610526 
r223 760 447 2 
r224 444 451 0.437895 
r225 444 445 0.0407126 
r226 667 443 0.0338756 
r227 430 470 0.0225434 
r228 430 431 1.14783 
r229 428 429 0.221176 
r230 424 428 0.0446983 
r231 424 425 0.608235 
r232 422 425 0.0446983 
r233 422 445 2.01647 
r234 405 443 0.00880368 
r235 405 406 0.1375 
r236 399 739 0.6025 
r237 399 449 0.0265396 
r238 320 790 0.0419737 
r239 786 320 0.0413851 
r240 813 320 0.00128205 
r241 803 317 2.21804 
r242 317 1046 0.6 
r243 970 284 0.00313778 
r244 1018 284 0.0652174 
r245 985 273 0.0141284 
r246 273 987 0.0652174 
r247 949 234 0.00313778 
r248 1013 234 0.0652174 
r249 224 970 0.00313778 
r250 1015 224 0.0652174 
r251 928 184 0.00313778 
r252 1008 184 0.0652174 
r253 174 949 0.00313778 
r254 1010 174 0.0652174 
r255 913 134 0.00313778 
r256 1003 134 0.0652174 
r257 124 928 0.00313778 
r258 1005 124 0.0652174 
r259 880 84 0.00313778 
r260 998 84 0.0652174 
r261 74 913 0.00313778 
r262 1000 74 0.0652174 
r263 34 861 0.0126027 
r264 859 34 0.0131507 
r265 993 34 0.0652174 
r266 24 880 0.00313778 
r267 995 24 0.0652174 
r268 10 744 0.250407 
r269 10 668 0.0473573 
.ends

.subckt PM_PC3T02%U15_ngate 70 77 84 91 99 107 143 145 193 199
c0 245 0 16.5564f
c1 237 0 0.536127f
c2 236 0 0.726004f
c3 233 0 0.0908427f
c4 232 0 6.78558f
c5 230 0 0.207476f
c6 228 0 6.45272f
c7 225 0 0.100957f
c8 211 0 2.83504f
c9 201 0 0.609004f
c10 200 0 0.169969f
c11 199 0 3.04886f
c12 193 0 3.04886f
c13 153 0 0.39367f
c14 145 0 0.589087f
c15 143 0 0.836962f
c16 140 0 0.132932f
c17 137 0 0.140735f
c18 128 0 0.134739f
c19 125 0 1.31765f
c20 124 0 0.13479f
c21 121 0 0.815866f
c22 116 0 3.03248f
c23 114 0 0.0377296f
c24 113 0 0.0461791f
c25 112 0 0.0265254f
c26 111 0 0.0265254f
c27 107 0 0.971716f
c28 104 0 0.129321f
c29 103 0 1.63642f
c30 99 0 1.2709f
c31 96 0 0.0804526f
c32 95 0 0.252089f
c33 91 0 1.33816f
c34 88 0 0.346988f
c35 84 0 1.42004f
c36 81 0 0.25093f
c37 77 0 1.459f
c38 75 0 0.049496f
c39 74 0 0.292203f
c40 70 0 1.4301f
c41 26 0 0.464039f
r42 244 245 0.397333 
r43 243 244 4.944 
r44 240 243 2.19467 
r45 234 236 0.0753823 
r46 234 252 1.5 
r47 232 236 0.0782492 
r48 232 233 7.495 
r49 240 230 6 
r50 228 230 6 
r51 227 233 0.0449052 
r52 227 228 7.33746 
r53 223 225 0.0755556 
r54 216 223 0.02 
r55 237 208 0.00142683 
r56 205 237 0.0277856 
r57 201 237 5.05882 
r58 200 237 5.05882 
r59 195 201 3.88985 
r60 195 199 183.96 
r61 190 200 3.88985 
r62 190 193 183.96 
r63 140 145 60 
r64 140 160 3.77986 
r65 137 143 85 
r66 137 153 3.53757 
r67 128 166 0.0370021 
r68 225 128 6 
r69 125 221 2.59143 
r70 125 245 6 
r71 221 124 6 
r72 216 121 1.53143 
r73 121 244 6 
r74 153 120 0.3325 
r75 211 120 6 
r76 117 214 2.2825 
r77 211 117 1.32 
r78 117 243 6 
r79 116 160 3.7825 
r80 214 116 6 
r81 113 124 0.0613333 
r82 106 107 1.2375 
r83 105 114 0.0310989 
r84 104 106 0.044713 
r85 104 105 0.152258 
r86 103 114 0.0112231 
r87 102 113 0.0447675 
r88 102 103 3.52 
r89 166 99 1.6275 
r90 97 99 1.28 
r91 95 114 0.0310989 
r92 95 96 0.301935 
r93 90 96 0.044713 
r94 90 91 1.2375 
r95 89 112 0.0338756 
r96 88 97 0.0446983 
r97 88 89 0.51 
r98 83 112 0.00880368 
r99 83 84 1.28 
r100 82 111 0.0338756 
r101 81 112 0.0338756 
r102 81 82 0.43 
r103 76 111 0.00880368 
r104 76 77 1.415 
r105 74 111 0.0338756 
r106 74 75 0.51 
r107 69 75 0.0446983 
r108 69 70 1.415 
r109 252 26 0.00195122 
r110 26 208 3 
r111 8 252 0.0536585 
r112 8 205 3 
.ends

.subckt PM_PC3T02%U17_ngate2 51 61 66 102 108
c0 138 0 0.535776f
c1 137 0 1.04072f
c2 133 0 0.229837f
c3 131 0 0.397413f
c4 130 0 0.0694994f
c5 129 0 0.0750899f
c6 128 0 7.57668f
c7 127 0 3.92748f
c8 121 0 0.141466f
c9 112 0 0.1586f
c10 110 0 0.609004f
c11 109 0 0.168886f
c12 108 0 3.04886f
c13 102 0 3.04886f
c14 82 0 0.311151f
c15 74 0 3.1278f
c16 73 0 0.13299f
c17 71 0 0.0822206f
c18 70 0 0.231433f
c19 66 0 0.585279f
c20 61 0 1.53003f
c21 59 0 0.0709291f
c22 58 0 0.119702f
c23 56 0 0.686907f
c24 55 0 3.59045f
c25 51 0 1.92736f
c26 26 0 0.450282f
r27 135 137 0.109567 
r28 135 147 1.5 
r29 140 133 6 
r30 131 133 6 
r31 130 131 0.55 
r32 128 137 0.0799283 
r33 128 129 8.867 
r34 127 130 0.0454198 
r35 126 129 0.0446983 
r36 126 127 5.202 
r37 121 123 0.0448391 
r38 121 122 0.0717241 
r39 138 118 0.00142683 
r40 115 138 0.0277856 
r41 112 140 0.100517 
r42 110 138 5.05882 
r43 109 138 5.05882 
r44 104 110 3.88985 
r45 104 108 183.96 
r46 99 109 3.88985 
r47 99 102 183.96 
r48 81 82 0.245 
r49 112 81 0.04 
r50 123 74 3.5675 
r51 74 82 6 
r52 122 73 6 
r53 71 73 0.0468966 
r54 65 66 0.79 
r55 60 61 1.745 
r56 58 60 0.0451268 
r57 58 59 0.124211 
r58 57 70 0.0321994 
r59 56 65 0.0447517 
r60 56 57 0.647059 
r61 55 59 0.0451268 
r62 54 71 0.0448391 
r63 54 55 5.505 
r64 50 81 0.02 
r65 50 51 2.2575 
r66 49 70 0.010241 
r67 49 51 1.98 
r68 147 26 0.00487805 
r69 26 118 3 
r70 8 147 0.0507317 
r71 8 115 3 
.ends

.subckt PM_PC3T02%U27_U72_pgate 22 41 101 103 114 125 153 159 164
c0 265 0 0.414606f
c1 262 0 0.306758f
c2 259 0 2.35654f
c3 257 0 0.223302f
c4 255 0 0.150322f
c5 253 0 16.0069f
c6 232 0 6.02605f
c7 230 0 0.0340832f
c8 229 0 0.0944101f
c9 228 0 0.210826f
c10 224 0 0.679809f
c11 219 0 0.879564f
c12 217 0 0.0612167f
c13 216 0 0.0386035f
c14 215 0 6.63365f
c15 206 0 0.730208f
c16 199 0 2.08703f
c17 196 0 0.148034f
c18 195 0 0.056205f
c19 190 0 0.0940331f
c20 186 0 0.0235939f
c21 185 0 0.0407839f
c22 183 0 0.0713978f
c23 180 0 2.26182f
c24 178 0 0.0599765f
c25 177 0 0.339244f
c26 171 0 0.0511886f
c27 168 0 0.326359f
c28 164 0 1.509f
c29 159 0 0.973496f
c30 157 0 0.0418973f
c31 156 0 0.375657f
c32 155 0 0.1653f
c33 153 0 1.51663f
c34 125 0 2.45815f
c35 119 0 1.54496f
c36 114 0 2.25483f
c37 112 0 0.0524904f
c38 111 0 0.401136f
c39 99 0 5.10206f
c40 90 0 4.80814f
c41 89 0 0.371977f
c42 83 0 0.40535f
c43 77 0 0.370539f
c44 35 0 0.309607f
c45 26 0 4.91766f
c46 24 0 0.105999f
c47 16 0 2.35927f
c48 7 0 4.99262f
c49 5 0 0.12938f
r50 262 263 0.32439 
r51 253 255 6 
r52 235 237 6 
r53 232 235 8.70933 
r54 232 255 6 
r55 228 237 0.0112 
r56 228 229 0.0514821 
r57 226 265 0.219512 
r58 263 226 0.16439 
r59 224 226 6 
r60 223 230 0.0143818 
r61 223 224 0.218272 
r62 221 262 0.219512 
r63 259 221 0.16039 
r64 219 221 6 
r65 218 230 0.0143818 
r66 218 219 0.468148 
r67 216 230 0.0324256 
r68 216 217 0.149677 
r69 215 217 0.0446983 
r70 229 215 10.3252 
r71 211 257 6 
r72 208 253 3.36774 
r73 250 208 11.391 
r74 206 208 6 
r75 206 211 1.15143 
r76 203 247 6 
r77 199 203 0.717037 
r78 199 244 6 
r79 195 196 0.12 
r80 192 195 0.0451268 
r81 188 257 0.218571 
r82 187 190 0.0785714 
r83 187 188 0.02 
r84 179 190 0.02 
r85 179 180 3.30571 
r86 177 180 0.0461631 
r87 177 178 0.30026 
r88 172 186 0.0327921 
r89 171 186 0.0327921 
r90 170 178 0.0449793 
r91 170 171 0.0967164 
r92 169 185 0.0343218 
r93 168 186 0.00972501 
r94 168 169 0.514286 
r95 163 185 0.00843222 
r96 163 164 1.59625 
r97 158 183 0.0200702 
r98 158 159 1.20375 
r99 156 185 0.0343218 
r100 156 157 0.614603 
r101 155 183 0.0982456 
r102 154 157 0.0452323 
r103 154 155 0.395385 
r104 172 153 1.59625 
r105 125 122 2.3375 
r106 196 122 6 
r107 192 119 2.67 
r108 119 250 6 
r109 118 125 2.0425 
r110 113 114 2.0425 
r111 112 118 0.0446983 
r112 111 113 0.0446983 
r113 111 112 0.51 
r114 99 103 394.95 
r115 265 98 2.81176 
r116 98 99 1.5 
r117 90 101 394.95 
r118 89 263 2.74706 
r119 89 90 1.5 
r120 87 103 394.95 
r121 86 87 1.5 
r122 247 83 0.219512 
r123 83 86 2.78235 
r124 80 247 0.164878 
r125 78 101 394.95 
r126 77 80 2.74706 
r127 77 78 1.5 
r128 35 80 0.323902 
r129 244 35 0.219512 
r130 27 262 2.07647 
r131 26 41 394.95 
r132 26 27 4.2601 
r133 25 35 2.07647 
r134 24 41 394.95 
r135 24 25 4.2601 
r136 16 244 0.160878 
r137 8 259 2.07647 
r138 7 22 394.95 
r139 7 8 4.2601 
r140 6 16 2.07647 
r141 5 22 394.95 
r142 5 6 4.2601 
.ends

.subckt PM_PC3T02%U15_pgate 31 38 43 50 57 68 73 113 118 141 187 193
c0 208 0 2.86393f
c1 197 0 1.20506f
c2 193 0 0.00447021f
c3 187 0 0.00572036f
c4 176 0 15.9255f
c5 174 0 0.992437f
c6 171 0 0.785517f
c7 169 0 1.50192f
c8 165 0 1.49663f
c9 158 0 0.0544354f
c10 157 0 0.281237f
c11 151 0 0.994811f
c12 146 0 1.88121f
c13 143 0 0.0565315f
c14 142 0 0.188493f
c15 141 0 0.00280858f
c16 118 0 0.00894832f
c17 113 0 0.00924659f
c18 99 0 2.78611f
c19 96 0 1.17019f
c20 94 0 0.712525f
c21 93 0 2.5367f
c22 89 0 0.289148f
c23 85 0 0.028277f
c24 83 0 0.028277f
c25 81 0 0.0289103f
c26 80 0 0.232744f
c27 79 0 0.028277f
c28 78 0 0.030398f
c29 73 0 1.45777f
c30 68 0 1.39196f
c31 65 0 0.344617f
c32 63 0 0.102424f
c33 61 0 0.45127f
c34 57 0 1.4976f
c35 54 0 0.287058f
c36 50 0 2.85917f
c37 48 0 0.0465867f
c38 47 0 0.286924f
c39 43 0 2.4272f
c40 38 0 2.2257f
c41 36 0 0.0505388f
c42 35 0 0.319748f
c43 31 0 2.20534f
r44 204 205 0.336 
r45 202 204 5.91067 
r46 179 208 6 
r47 205 176 4.60533 
r48 174 176 6 
r49 174 179 1.65857 
r50 171 197 6 
r51 169 193 1.43125 
r52 167 169 6 
r53 167 171 0.518356 
r54 165 187 1.4325 
r55 163 165 6 
r56 163 167 0.516164 
r57 157 159 0.0446983 
r58 157 158 0.2925 
r59 150 158 0.0446983 
r60 150 151 1.63125 
r61 145 208 3.87429 
r62 144 197 0.11625 
r63 143 144 0.0448998 
r64 142 145 0.0456127 
r65 142 143 0.183333 
r66 197 141 1.4375 
r67 99 118 4.4175 
r68 161 99 6 
r69 96 161 1.405 
r70 159 96 0.58875 
r71 96 205 6 
r72 94 155 1.395 
r73 94 204 6 
r74 93 113 4.545 
r75 155 93 6 
r76 151 91 6 
r77 146 89 6 
r78 146 86 2.26 
r79 86 202 6 
r80 84 118 1.3875 
r81 84 85 0.00880368 
r82 82 113 1.27 
r83 82 83 0.00880368 
r84 80 91 0.116143 
r85 80 81 0.0327397 
r86 77 89 0.215 
r87 77 78 0.0302706 
r88 72 73 1.3875 
r89 67 68 1.3625 
r90 66 85 0.0338756 
r91 65 72 0.0446983 
r92 65 66 0.51 
r93 64 83 0.0338756 
r94 63 85 0.0338756 
r95 63 64 0.2325 
r96 62 81 0.00977027 
r97 61 67 0.0448998 
r98 61 62 0.428889 
r99 56 81 0.0327397 
r100 56 57 1.3625 
r101 55 79 0.0338756 
r102 54 83 0.0338756 
r103 54 55 0.51 
r104 49 79 0.00880368 
r105 49 50 2.485 
r106 47 79 0.0338756 
r107 47 48 0.51 
r108 42 48 0.0446983 
r109 42 43 2.485 
r110 37 78 0.0302706 
r111 37 38 2.06 
r112 35 78 0.0119838 
r113 35 36 0.585714 
r114 30 36 0.0449572 
r115 30 31 2.06 
.ends

.subckt PM_PC3T02%U27_U71_UN_P_TOP 18 37 68 87 118 137 202 204 211 220
c0 369 0 0.325638f
c1 367 0 0.325638f
c2 366 0 0.31181f
c3 364 0 0.326029f
c4 363 0 0.325638f
c5 361 0 0.325638f
c6 360 0 0.337763f
c7 357 0 4.68787f
c8 355 0 0.309607f
c9 353 0 0.309607f
c10 352 0 0.293407f
c11 350 0 0.309998f
c12 349 0 0.309607f
c13 347 0 0.309607f
c14 346 0 0.309862f
c15 343 0 4.67479f
c16 341 0 0.246589f
c17 339 0 15.9573f
c18 337 0 0.202578f
c19 331 0 0.320086f
c20 329 0 5.77944f
c21 323 0 0.258565f
c22 321 0 0.754972f
c23 319 0 4.86124f
c24 313 0 0.171539f
c25 311 0 0.135166f
c26 307 0 1.14633f
c27 293 0 4.85799f
c28 292 0 0.0840757f
c29 290 0 1.1456f
c30 284 0 2.3294f
c31 277 0 2.40242f
c32 270 0 1.77447f
c33 268 0 0.0870957f
c34 264 0 0.83272f
c35 238 0 0.710407f
c36 235 0 0.453666f
c37 225 0 0.0711037f
c38 220 0 1.36017f
c39 213 0 0.0443925f
c40 212 0 0.161794f
c41 211 0 2.03626f
c42 197 0 5.08676f
c43 196 0 0.436714f
c44 167 0 4.93197f
c45 165 0 0.107369f
c46 163 0 0.133146f
c47 122 0 4.98299f
c48 120 0 0.129446f
c49 103 0 4.92712f
c50 101 0 0.106492f
c51 72 0 4.89543f
c52 70 0 0.105999f
c53 53 0 4.91984f
c54 51 0 0.105999f
c55 22 0 4.92483f
c56 20 0 0.105999f
c57 3 0 4.92483f
c58 1 0 0.105999f
r59 366 367 0.32839 
r60 363 364 0.32839 
r61 360 361 0.32839 
r62 352 353 0.327902 
r63 349 350 0.327902 
r64 346 347 0.327902 
r65 339 341 6 
r66 338 339 12.5587 
r67 335 337 6 
r68 335 338 0.189333 
r69 329 331 3 
r70 328 329 4.07677 
r71 325 341 6 
r72 323 328 0.0447341 
r73 323 325 0.0616949 
r74 319 321 6 