* File: pc3b05.dist.sp.pex
* Created: Sun Jul  4 12:17:49 2010
* Program "Calibre xRC"
* Version "v2008.4_19.14"
* Nominal Temperature: 27C
* Circuit Temperature: 27C
* 
.subckt PM_PC3B05%PAD 21 50 79 108 137 166 218 242 266 290 320 326 389 428 452
+ 459
c0 467 0 29.5122f
c1 460 0 83.0515f
c2 459 0 64.3341f
c3 456 0 159.215f
c4 451 0 1.02644f
c5 444 0 9.95412f
c6 434 0 13.8424f
c7 425 0 0.117887f
c8 423 0 213.998f
c9 408 0 15.3329f
c10 397 0 46.9231f
c11 392 0 65.4578f
c12 390 0 15.8906f
c13 389 0 1.04872f
c14 388 0 3.88292f
c15 326 0 13.4242f
c16 320 0 13.423f
c17 290 0 13.4134f
c18 266 0 13.4219f
c19 242 0 13.6954f
c20 218 0 13.4098f
c21 176 0 7.52869f
c22 166 0 2.98552f
c23 149 0 6.78371f
c24 137 0 2.98621f
c25 120 0 6.78371f
c26 108 0 2.98621f
c27 91 0 6.78371f
c28 79 0 2.98621f
c29 62 0 6.78371f
c30 50 0 2.9855f
c31 33 0 6.78371f
c32 21 0 2.98537f
c33 4 0 6.78371f
r34 467 468 0.118407 
r35 466 467 0.118407 
r36 465 466 0.056883 
r37 464 465 0.061524 
r38 463 464 0.118407 
r39 462 463 0.0830354 
r40 461 462 0.0353716 
r41 459 460 0.0124825 
r42 457 459 0.000593149 
r43 456 457 0.0669731 
r44 451 452 0.00916 
r45 444 462 0.0545455 
r46 434 465 0.015 
r47 425 428 0.00916 
r48 425 451 2 
r49 423 434 0.0264274 
r50 421 423 0.147454 
r51 421 422 0.0288462 
r52 415 416 0.00752787 
r53 414 415 0.021023 
r54 412 414 0.000537705 
r55 412 456 0.00162999 
r56 410 412 0.000537705 
r57 408 410 0.0285508 
r58 399 451 0.1388 
r59 398 399 0.132996 
r60 397 398 0.0171733 
r61 394 395 0.0171733 
r62 393 394 0.0171733 
r63 392 393 0.0171733 
r64 391 397 0.0142401 
r65 391 395 0.00293318 
r66 390 422 0.00646891 
r67 390 392 0.00818451 
r68 388 444 0.202116 
r69 388 389 0.0147368 
r70 315 320 0.0072093 
r71 392 315 0.0566038 
r72 313 326 0.0072093 
r73 398 313 0.0566038 
r74 286 290 0.0072093 
r75 397 286 0.0566038 
r76 262 266 0.0072093 
r77 395 262 0.0566038 
r78 238 242 0.0072093 
r79 394 238 0.0566038 
r80 214 218 0.0072093 
r81 393 214 0.0566038 
r82 194 197 0.0022831 
r83 416 194 0.0375475 
r84 194 457 0.00547945 
r85 414 193 0.00210084 
r86 191 193 0.000537705 
r87 410 191 0.00210084 
r88 193 182 0.0105115 
r89 415 182 0.00712251 
r90 178 197 0.0187738 
r91 182 178 0.00376393 
r92 416 178 0.00712251 
r93 176 191 0.0142754 
r94 408 176 0.00356125 
r95 460 173 0.345778 
r96 172 468 0.0220132 
r97 172 173 0.319822 
r98 166 153 0.00249413 
r99 173 153 0.0425532 
r100 149 166 0.00249413 
r101 173 149 0.0425532 
r102 460 144 0.345778 
r103 143 467 0.0220132 
r104 143 144 0.319822 
r105 137 124 0.00249413 
r106 144 124 0.0425532 
r107 120 137 0.00249413 
r108 144 120 0.0425532 
r109 460 115 0.345778 
r110 114 466 0.0220132 
r111 114 115 0.319822 
r112 108 95 0.00249413 
r113 115 95 0.0425532 
r114 91 108 0.00249413 
r115 115 91 0.0425532 
r116 460 86 0.345778 
r117 85 464 0.0220132 
r118 85 86 0.319822 
r119 79 66 0.00249413 
r120 86 66 0.0425532 
r121 62 79 0.00249413 
r122 86 62 0.0425532 
r123 460 57 0.345778 
r124 56 463 0.0220132 
r125 56 57 0.319822 
r126 50 37 0.00249413 
r127 57 37 0.0425532 
r128 33 50 0.00249413 
r129 57 33 0.0425532 
r130 460 28 0.345778 
r131 27 461 0.0220132 
r132 27 28 0.319822 
r133 21 8 0.00249413 
r134 28 8 0.0425532 
r135 4 21 0.00249413 
r136 28 4 0.0425532 
.ends

.subckt PM_PC3B05%noxref_2 8 18
c0 20 0 4.82222f
c1 18 0 0.98902f
c2 8 0 6.70705f
r3 18 20 0.158105 
r4 20 8 0.158526 
.ends

.subckt PM_PC3B05%net_m20_VSSO_res 25 97 101 105 109 113
c0 113 0 0.519409f
c1 109 0 0.519409f
c2 105 0 0.519409f
c3 101 0 0.721524f
c4 97 0 0.73297f
c5 93 0 0.864037f
c6 87 0 0.0518462f
c7 53 0 0.0631005f
c8 43 0 0.242979f
c9 42 0 0.19588f
c10 41 0 0.135544f
c11 40 0 0.10058f
c12 39 0 0.162435f
c13 25 0 0.371125f
c14 24 0 0.190505f
c15 23 0 0.0477785f
c16 22 0 0.371634f
r17 88 93 0.0552941 
r18 87 88 0.02 
r19 86 87 0.124706 
r20 54 97 85 
r21 52 113 85 
r22 52 53 0.93595 
r23 51 109 85 
r24 50 51 1.5553 
r25 49 93 2.20253 
r26 48 50 6.2212 
r27 48 49 1.5553 
r28 47 105 85 
r29 46 48 10.0922 
r30 46 47 1.5553 
r31 45 101 85 
r32 44 53 2.23066 
r33 43 54 3.37824 
r34 43 44 10.8571 
r35 42 50 4.70046 
r36 41 53 2.23066 
r37 41 42 9 
r38 40 45 3.37824 
r39 39 46 2.90323 
r40 39 40 10.8571 
r41 24 25 0.18 
r42 86 23 0.0446983 
r43 22 24 0.0446983 
r44 22 23 0.521176 
.ends

.subckt PM_PC3B05%U29_padr 40 46 54 116 118 121 160
c0 224 0 16.1862f
c1 218 0 9.31824f
c2 214 0 15.9274f
c3 197 0 0.145078f
c4 196 0 0.0372956f
c5 195 0 0.0478417f
c6 194 0 0.0873247f
c7 191 0 6.60978f
c8 188 0 0.611623f
c9 186 0 5.63632f
c10 184 0 0.516633f
c11 182 0 0.0693973f
c12 181 0 0.207306f
c13 180 0 0.411447f
c14 174 0 1.73033f
c15 165 0 1.83121f
c16 161 0 0.438735f
c17 160 0 1.07645f
c18 159 0 0.703354f
c19 140 0 0.394633f
c20 136 0 0.0843457f
c21 121 0 1.09106f
c22 118 0 0.567391f
c23 116 0 1.02291f
c24 109 0 0.093022f
c25 88 0 16.1181f
c26 83 0 0.386024f
c27 82 0 0.370735f
c28 80 0 0.40312f
c29 76 0 0.421448f
c30 70 0 0.226943f
c31 69 0 0.0193661f
c32 68 0 0.0834583f
c33 66 0 0.0580109f
c34 65 0 0.0700572f
c35 64 0 0.0831665f
c36 60 0 0.30153f
c37 58 0 0.0331349f
c38 57 0 0.0954138f
c39 54 0 1.27015f
c40 51 0 0.068806f
c41 50 0 0.372865f
c42 46 0 2.39968f
c43 44 0 0.512434f
c44 40 0 2.3275f
r45 224 216 0.172857 
r46 214 216 6 
r47 213 214 10.9933 
r48 197 199 3 
r49 196 197 0.109474 
r50 196 194 0.0456991 
r51 194 195 0.147143 
r52 191 224 2 
r53 189 195 0.0446983 
r54 189 191 10.3129 
r55 188 199 0.30381 
r56 218 186 0.185079 
r57 184 186 1.2 
r58 183 184 0.482857 
r59 181 183 0.0446983 
r60 181 182 0.125714 
r61 180 182 0.0446983 
r62 179 188 0.0446983 
r63 179 180 0.407619 
r64 174 176 2.8475 
r65 159 218 0.18836 
r66 159 160 0.0147368 
r67 125 127 3.75467 
r68 140 109 0.77 
r69 108 121 168.333 
r70 108 109 3.92502 
r71 103 118 51.6667 
r72 102 103 1.66667 
r73 95 116 168.333 
r74 136 95 3.6393 
r75 174 90 6 
r76 127 88 0.434667 
r77 176 88 6 
r78 176 85 0.8025 
r79 85 140 6 
r80 83 172 1.2525 
r81 83 213 6 
r82 82 136 0.7825 
r83 172 82 6 
r84 165 80 6 
r85 77 168 0.8 
r86 165 77 2.88 
r87 77 127 6 
r88 168 76 6 
r89 74 213 3.984 
r90 161 74 6 
r91 161 71 0.482667 
r92 71 125 6 
r93 70 90 0.05 
r94 66 76 0.642857 
r95 65 80 0.642857 
r96 64 70 0.0446983 
r97 63 69 0.0338756 
r98 63 64 0.1875 
r99 60 102 1.16667 
r100 59 69 0.0338756 
r101 59 60 0.245 
r102 57 69 0.00880368 
r103 57 58 0.25 
r104 53 58 0.0446983 
r105 53 54 1.2575 
r106 52 54 1.3775 
r107 50 52 0.0447588 
r108 50 51 0.544 
r109 68 46 2.375 
r110 44 68 0.12 
r111 43 66 0.0449572 
r112 43 44 0.8475 
r113 39 65 0.0449572 
r114 39 40 1.4975 
r115 38 51 0.0447588 
r116 38 40 1.3775 
.ends

.subckt PM_PC3B05%VSS 587 773 804 826 851 856 869 871 876
c0 876 0 91.6428f
c1 869 0 56.2551f
c2 854 0 2.37405f
c3 851 0 0.00368951f
c4 848 0 1.24098f
c5 835 0 1.21671f
c6 822 0 1.88726f
c7 815 0 16.7087f
c8 801 0 1.45963f
c9 786 0 25.3209f
c10 784 0 0.0842555f
c11 783 0 0.0657505f
c12 782 0 7.76032f
c13 780 0 0.269279f
c14 777 0 0.0372194f
c15 773 0 4.21717f
c16 770 0 0.198007f
c17 768 0 0.849373f
c18 765 0 10.3725f
c19 758 0 8.7194f
c20 755 0 0.254823f
c21 754 0 0.100669f
c22 753 0 1.98808f
c23 629 0 2.25025f
c24 625 0 2.49195f
c25 620 0 1.90886f
c26 618 0 0.228409f
c27 616 0 0.276497f
c28 613 0 26.6343f
c29 607 0 0.816164f
c30 606 0 6.34069f
c31 600 0 2.03915f
c32 594 0 0.137389f
c33 593 0 2.49501f
c34 592 0 0.154374f
c35 591 0 2.26465f
c36 587 0 0.00279637f
c37 539 0 0.162892f
c38 537 0 0.72248f
c39 535 0 0.203897f
c40 510 0 2.94295f
c41 496 0 3.05881f
c42 494 0 0.031054f
c43 491 0 0.729043f
c44 490 0 7.74017f
c45 489 0 0.203811f
c46 474 0 5.70454f
c47 471 0 3.25483f
r48 871 874 0.000703354 
r49 867 869 0.00318245 
r50 866 867 0.00119641 
r51 865 866 0.0758524 
r52 864 865 0.0344168 
r53 863 864 0.167059 
r54 862 863 0.0871386 
r55 861 862 0.0414357 
r56 860 861 0.0141176 
r57 859 860 0.089651 
r58 856 859 0.00438684 
r59 854 867 0.461538 
r60 848 851 1.28857 
r61 848 865 1.5 
r62 842 863 0.0535714 
r63 840 861 1.5 
r64 840 842 1.612 
r65 835 838 0.045 
r66 835 862 0.666667 
r67 829 866 0.428571 
r68 826 829 0.189 
r69 824 876 0.000702051 
r70 874 824 0.0832563 
r71 822 824 0.131579 
r72 822 826 0.013 
r73 819 820 0.56934 
r74 818 819 1.12447 
r75 815 818 0.628223 
r76 815 864 0.3 
r77 807 859 0.428571 
r78 804 807 0.189 
r79 801 804 0.013 
r80 801 874 0.131579 
r81 782 842 2.8715 
r82 782 783 0.0338756 
r83 786 779 1 
r84 779 780 0.0155975 
r85 777 840 1.283 
r86 776 784 0.0338756 
r87 775 783 0.0338756 
r88 773 846 2.59036 
r89 844 773 1.07807 
r90 772 784 0.00880368 
r91 772 773 0.958 
r92 771 783 0.00880368 
r93 771 773 0.986 
r94 780 770 0.0632911 
r95 770 768 0.0574488 
r96 765 784 0.0338756 
r97 764 777 0.0448201 
r98 761 854 1.518 
r99 760 854 0.426 
r100 758 846 1.08482 
r101 755 844 1.06072 
r102 754 773 3.1035 
r103 753 754 0.0448201 
r104 753 764 2.13041 
r105 765 631 0.733 
r106 773 631 1.93 
r107 629 788 3 
r108 844 625 1 
r109 788 620 0.24 
r110 819 620 1.5 
r111 631 618 3 
r112 818 618 3 
r113 616 846 3 
r114 820 616 3 
r115 613 812 1.1314 
r116 613 860 0.125 
r117 612 625 0.0075 
r118 634 612 0.056 
r119 812 612 0.24 
r120 608 786 0.9662 
r121 608 634 0.02 
r122 607 776 0.5005 
r123 761 607 0.0446983 
r124 606 775 0.5005 
r125 760 606 0.0446983 
r126 605 629 0.830244 
r127 604 629 0.573659 
r128 599 600 1.37048 
r129 594 605 0.0448242 
r130 594 595 0.678222 
r131 593 600 0.0447675 
r132 593 595 0.650667 
r133 592 604 0.0446983 
r134 591 599 0.0447067 
r135 591 592 1.45854 
r136 838 587 0.31875 
r137 538 539 0.147619 
r138 534 535 0.14988 
r139 758 534 0.0380723 
r140 531 533 0.143333 
r141 755 530 0.0385542 
r142 528 530 0.14506 
r143 773 527 0.159 
r144 510 773 0.159 
r145 509 539 0.02 
r146 509 527 1.247 
r147 508 535 0.02 
r148 508 510 1.243 
r149 773 507 0.192 
r150 505 773 0.192 
r151 504 505 0.342 
r152 773 504 0.192 
r153 502 773 0.192 
r154 501 502 0.342 
r155 773 501 0.192 
r156 499 773 0.192 
r157 498 499 0.342 
r158 773 498 0.192 
r159 496 773 0.192 
r160 495 538 0.02 
r161 495 507 1.214 
r162 494 537 0.04 
r163 494 496 0.243 
r164 492 534 0.02 
r165 492 537 0.938734 
r166 779 491 0.102486 
r167 490 538 0.0380952 
r168 490 491 4.80524 
r169 489 768 0.555238 
r170 489 533 0.0380952 
r171 773 485 0.159 
r172 483 773 0.159 
r173 482 483 0.408 
r174 773 482 0.159 
r175 480 773 0.159 
r176 479 480 0.408 
r177 773 479 0.159 
r178 477 773 0.159 
r179 476 477 0.408 
r180 773 476 0.159 
r181 474 773 0.159 
r182 473 533 0.02 
r183 473 485 1.247 
r184 472 530 0.02 
r185 472 474 1.243 
r186 471 531 0.02 
r187 470 528 0.02 
r188 470 471 4.69271 
.ends

.subckt PM_PC3B05%U29_U42_r1 53 58 66
c0 133 0 0.254953f
c1 129 0 0.130993f
c2 123 0 2.82662f
c3 113 0 0.444829f
c4 112 0 0.304369f
c5 110 0 0.340878f
c6 108 0 0.0792102f
c7 107 0 0.329567f
c8 104 0 6.54958f
c9 99 0 0.17926f
c10 98 0 9.15552f
c11 97 0 0.624464f
c12 96 0 0.304225f
c13 93 0 0.136486f
c14 87 0 0.0903556f
c15 79 0 0.171215f
c16 73 0 0.67858f
c17 67 0 0.305692f
c18 66 0 0.278026f
c19 61 0 0.163718f
c20 60 0 0.550929f
c21 58 0 3.1011f
c22 53 0 3.10209f
r23 115 133 0.00341463 
r24 113 115 3 
r25 111 113 0.0379109 
r26 111 112 0.662857 
r27 110 113 0.0379109 
r28 109 110 0.123408 
r29 107 112 0.0446983 
r30 107 108 0.352857 
r31 104 129 6 
r32 102 108 0.0448488 
r33 102 104 6.78194 
r34 98 109 0.0590783 
r35 98 99 10.868 
r36 97 99 0.0657212 
r37 125 96 0.0521951 
r38 95 97 0.117891 
r39 95 96 3 
r40 91 129 0.130323 
r41 90 93 0.153548 
r42 90 91 0.02 
r43 87 123 6 
r44 85 93 0.02 
r45 85 87 0.132903 
r46 84 123 3.99613 
r47 83 84 0.026898 
r48 79 83 0.10143 
r49 79 66 0.106667 
r50 61 73 1.85294 
r51 60 67 1.85294 
r52 55 61 3.88985 
r53 55 58 183.96 
r54 50 60 3.88985 
r55 50 53 183.96 
r56 73 27 0.00142683 
r57 133 27 3 
r58 67 9 0.00142683 
r59 125 9 3 
.ends

.subckt PM_PC3B05%VSSO 409 434 436 472 793 797 804 833 840 852 866 868 873 878
+ 884 893 899 905 911 920 926 932 941 947 953 962 968 974 983 989 1001 1053 1059
+ 1063 1069
c0 1069 0 32.0863f
c1 1056 0 1.98471f
c2 1053 0 46.6662f
c3 1033 0 7.93825f
c4 1031 0 6.95862f
c5 1026 0 6.95927f
c6 1021 0 6.96017f
c7 1016 0 6.96129f
c8 1011 0 6.96235f
c9 1001 0 0.0019991f
c10 996 0 8.95235f
c11 989 0 0.342408f
c12 974 0 1.36597f
c13 968 0 1.40025f
c14 953 0 1.35721f
c15 947 0 1.35737f
c16 932 0 2.01156f
c17 926 0 1.76725f
c18 911 0 1.20335f
c19 905 0 0.840215f
c20 899 0 1.37894f
c21 884 0 2.02532f
c22 878 0 1.55543f
c23 873 0 1.69058f
c24 871 0 0.237135f
c25 868 0 0.00103438f
c26 866 0 8.25608e-19
c27 864 0 8.96457f
c28 850 0 7.86095f
c29 846 0 1.27875f
c30 836 0 1.65707f
c31 833 0 58.2592f
c32 800 0 1.34161f
c33 797 0 10.6383f
c34 785 0 0.115216f
c35 779 0 5.07053f
c36 776 0 0.112261f
c37 775 0 0.0408562f
c38 774 0 1.55862f
c39 772 0 0.0510217f
c40 771 0 0.328516f
c41 770 0 0.651772f
c42 764 0 0.579274f
c43 760 0 0.708327f
c44 758 0 0.0415494f
c45 757 0 3.24912f
c46 755 0 0.383003f
c47 754 0 0.713156f
c48 753 0 0.303464f
c49 752 0 3.27686f
c50 751 0 0.383249f
c51 750 0 2.10295f
c52 748 0 0.0503886f
c53 747 0 0.19079f
c54 746 0 0.342709f
c55 713 0 0.122915f
c56 712 0 8.8907f
c57 679 0 0.264591f
c58 675 0 7.03694f
c59 671 0 0.146306f
c60 472 0 0.431422f
c61 456 0 1.15054f
c62 454 0 0.101359f
c63 452 0 0.228551f
c64 450 0 1.74875f
c65 449 0 0.0437703f
c66 448 0 0.346471f
c67 436 0 0.918644f
c68 435 0 0.120547f
c69 434 0 0.346872f
c70 433 0 0.193042f
c71 430 0 0.0491335f
c72 429 0 0.436605f
c73 409 0 0.114597f
c74 402 0 0.121644f
c75 317 0 5.73114f
c76 284 0 14.0334f
c77 234 0 14.0339f
c78 184 0 14.0345f
c79 134 0 14.036f
c80 84 0 14.0376f
c81 10 0 0.146306f
r82 1067 1069 0.00282778 
r83 1066 1067 0.355444 
r84 1063 1066 0.00283333 
r85 1058 1060 0.0106667 
r86 1058 1059 0.02 
r87 1056 1058 0.0143333 
r88 1050 1051 0.166203 
r89 1049 1050 0.0396791 
r90 1048 1049 0.043262 
r91 1047 1048 0.0347594 
r92 1046 1047 0.0198396 
r93 1045 1046 0.0665241 
r94 1044 1045 0.0253476 
r95 1043 1044 0.0265241 
r96 1042 1043 0.0475936 
r97 1041 1042 0.0226738 
r98 1040 1041 0.0233155 
r99 1039 1040 0.0203209 
r100 1038 1039 0.0213904 
r101 1037 1056 0.02 
r102 1037 1038 0.0720856 
r103 1005 1006 0.0140639 
r104 1000 1001 0.0126606 
r105 1033 998 0.0113761 
r106 996 998 0.0638298 
r107 993 1051 2 
r108 989 993 0.000380952 
r109 977 1050 0.6 
r110 974 977 0.285 
r111 971 1049 0.6 
r112 968 971 0.32 
r113 956 1048 0.6 
r114 953 956 0.36 
r115 950 1047 0.6 
r116 947 950 0.37 
r117 935 1045 0.6 
r118 932 935 0.9975 
r119 929 1044 0.6 
r120 926 929 0.995 
r121 914 1043 0.6 
r122 911 914 0.3425 
r123 908 1042 0.75 
r124 905 908 0.04 
r125 902 1041 0.6 
r126 899 902 0.365 
r127 887 1040 0.6 
r128 884 887 0.194286 
r129 881 1039 0.6 
r130 878 881 0.3175 
r131 875 1038 0.666667 
r132 873 875 0.96 
r133 866 1000 0.013211 
r134 996 866 0.000917431 
r135 864 866 0.000913242 
r136 864 1005 0.0638298 
r137 851 852 0.02 
r138 850 1005 0.0113242 
r139 848 850 0.0327869 
r140 848 851 0.0166784 
r141 846 848 0.029258 
r142 843 1067 0.357143 
r143 840 843 0.21 
r144 838 1053 0.00544385 
r145 1051 838 0.0345455 
r146 836 838 1 
r147 836 840 0.445 
r148 831 833 0.00612761 
r149 831 1033 0.0327869 
r150 983 829 0.130435 
r151 829 1031 0.00301741 
r152 1028 829 0.00301741 
r153 827 829 0.0266667 
r154 827 831 0.0287785 
r155 962 826 0.130435 
r156 826 1026 0.00301741 
r157 1023 826 0.00301741 
r158 824 826 0.0266667 
r159 824 827 0.0242129 
r160 941 823 0.130435 
r161 823 1021 0.00301741 
r162 1018 823 0.00301741 
r163 821 823 0.0266667 
r164 821 824 0.0242129 
r165 820 821 0.000615582 
r166 920 819 0.130435 
r167 819 1016 0.00301741 
r168 1013 819 0.00301741 
r169 817 819 0.0266667 
r170 817 820 0.0235973 
r171 893 816 0.130435 
r172 816 1011 0.00301741 
r173 1008 816 0.00301741 
r174 814 816 0.0266667 
r175 814 817 0.0242129 
r176 813 846 0.02 
r177 813 814 0.0277012 
r178 851 810 0.429445 
r179 807 1066 0.357143 
r180 804 807 0.21 
r181 802 1062 0.144409 
r182 1060 802 0.034 
r183 800 802 1 
r184 800 804 0.445 
r185 788 871 3 
r186 785 788 0.0536842 
r187 778 785 0.02 
r188 778 779 6.35789 
r189 775 776 0.1275 
r190 774 775 0.0448391 
r191 773 774 2.75862 
r192 771 773 0.044715 
r193 771 772 0.466667 
r194 770 772 0.0450432 
r195 1062 770 1.29371 
r196 764 785 0.02 
r197 764 765 0.746316 
r198 762 1001 0.230275 
r199 760 996 0.210275 
r200 758 871 0.109474 
r201 756 868 0.229041 
r202 756 757 0.0863581 
r203 754 864 0.209132 
r204 754 755 0.0863581 
r205 762 752 0.0861375 
r206 752 753 0.132033 
r207 760 751 0.0861375 
r208 758 750 0.0420103 
r209 749 750 3.01467 
r210 747 749 0.0446983 
r211 747 748 0.289333 
r212 746 748 0.0447588 
r213 713 866 0.128 
r214 712 753 0.0473573 
r215 712 866 0.126 
r216 679 713 0.0473573 
r217 757 679 0.132033 
r218 675 866 0.126 
r219 674 873 1.1475 
r220 672 866 0.128 
r221 671 672 0.0473573 
r222 671 755 0.250407 
r223 779 458 6 
r224 1046 456 0.75 
r225 776 454 3 
r226 472 452 0.0610526 
r227 765 452 2 
r228 449 456 0.437895 
r229 449 450 0.0407126 
r230 674 448 0.0338756 
r231 435 458 0.0413535 
r232 435 436 1.14783 
r233 433 434 0.221176 
r234 429 433 0.0446983 
r235 429 430 0.608235 
r236 427 430 0.0446983 
r237 427 450 2.01647 
r238 408 448 0.00880368 
r239 408 409 0.1375 
r240 402 746 0.6025 
r241 402 454 0.0265396 
r242 320 797 0.0419737 
r243 793 320 0.0413851 
r244 820 320 0.00128205 
r245 810 317 2.21804 
r246 317 1060 0.6 
r247 983 284 0.00313778 
r248 1031 284 0.0652174 
r249 998 273 0.0141284 
r250 273 1000 0.0652174 
r251 962 234 0.00313778 
r252 1026 234 0.0652174 
r253 224 983 0.00313778 
r254 1028 224 0.0652174 
r255 941 184 0.00313778 
r256 1021 184 0.0652174 
r257 174 962 0.00313778 
r258 1023 174 0.0652174 
r259 920 134 0.00313778 
r260 1016 134 0.0652174 
r261 124 941 0.00313778 
r262 1018 124 0.0652174 
r263 893 84 0.00313778 
r264 1011 84 0.0652174 
r265 74 920 0.00313778 
r266 1013 74 0.0652174 
r267 34 868 0.0126027 
r268 866 34 0.0131507 
r269 1006 34 0.0652174 
r270 24 893 0.00313778 
r271 1008 24 0.0652174 
r272 10 751 0.250407 
r273 10 675 0.0473573 
.ends

.subckt PM_PC3B05%U30_ngate 106 115 122 129 136 173 175 193 235 240 245 251
c0 321 0 0.46305f
c1 313 0 16.5418f
c2 306 0 0.535576f
c3 303 0 0.237944f
c4 302 0 0.72438f
c5 298 0 1.51521f
c6 297 0 0.717592f
c7 294 0 0.0674234f
c8 293 0 1.5168f
c9 291 0 0.211175f
c10 289 0 5.47036f
c11 285 0 0.136082f
c12 279 0 0.720247f
c13 274 0 2.99679f
c14 258 0 0.535713f
c15 255 0 0.608491f
c16 254 0 0.169228f
c17 253 0 0.608605f
c18 252 0 0.169456f
c19 251 0 3.04886f
c20 245 0 3.04886f
c21 240 0 3.04886f
c22 235 0 3.04886f
c23 193 0 2.09506f
c24 183 0 0.43166f
c25 175 0 0.595958f
c26 173 0 0.831149f
c27 170 0 0.149707f
c28 167 0 0.145613f
c29 158 0 2.03773f
c30 155 0 2.67914f
c31 148 0 3.13562f
c32 146 0 0.0297353f
c33 143 0 0.0261329f
c34 136 0 1.0754f
c35 134 0 0.0723979f
c36 133 0 0.414673f
c37 129 0 1.35208f
c38 126 0 0.366328f
c39 122 0 1.34432f
c40 120 0 0.0712321f
c41 119 0 0.24647f
c42 115 0 1.46684f
c43 113 0 0.684381f
c44 111 0 0.062294f
c45 110 0 0.333056f
c46 106 0 2.04938f
c47 62 0 0.463762f
r48 312 313 6.68 
r49 309 312 1.85067 
r50 300 302 0.0679909 
r51 300 325 1.5 
r52 299 303 0.101609 
r53 298 302 0.080189 
r54 298 299 1.461 
r55 297 303 0.0219522 
r56 296 321 0.00536585 
r57 318 296 0.0502439 
r58 295 297 0.0688944 
r59 295 296 1.5 
r60 293 303 0.101609 
r61 293 294 1.745 
r62 309 291 6 
r63 289 291 6 
r64 288 294 0.0450816 
r65 288 289 7.68471 
r66 285 283 0.0545192 
r67 279 282 0.0447588 
r68 279 280 0.876 
r69 306 271 0.00142683 
r70 268 306 0.0277856 
r71 255 306 5.05882 
r72 254 306 5.05882 
r73 253 258 5.05882 
r74 252 258 5.05882 
r75 247 255 3.88985 
r76 247 251 183.96 
r77 242 254 3.88985 
r78 242 245 183.96 
r79 237 253 3.88985 
r80 237 240 183.96 
r81 232 252 3.88985 
r82 232 235 183.96 
r83 170 175 60 
r84 170 190 3.77986 
r85 167 173 85 
r86 167 183 3.53757 
r87 285 158 6 
r88 283 155 2.2175 
r89 282 155 1.515 
r90 155 313 6 
r91 193 154 1.505 
r92 280 154 6 
r93 183 152 0.3325 
r94 274 152 6 
r95 149 277 2.2825 
r96 274 149 1.32 
r97 149 312 6 
r98 148 190 3.7825 
r99 277 148 6 
r100 145 158 3.105 
r101 145 146 0.0329896 
r102 144 193 1.3075 
r103 140 142 0.06125 
r104 135 146 0.0329896 
r105 135 136 1.2375 
r106 133 146 0.00955498 
r107 133 134 0.526452 
r108 128 134 0.044713 
r109 128 129 1.2375 
r110 127 143 0.0338756 
r111 126 144 0.0446983 
r112 126 127 0.51 
r113 121 143 0.00880368 
r114 121 122 1.3075 
r115 120 142 0.04 
r116 119 143 0.0338756 
r117 119 120 0.4325 
r118 114 142 0.02 
r119 114 115 1.4425 
r120 113 140 0.02 
r121 112 113 1.08375 
r122 110 112 0.0450043 
r123 110 111 0.388108 
r124 105 111 0.0450043 
r125 105 106 1.93125 
r126 325 62 0.00292683 
r127 62 271 3 
r128 258 38 0.00142683 
r129 321 38 3 
r130 26 325 0.0526829 
r131 26 268 3 
r132 258 9 0.0277856 
r133 318 9 3 
.ends

.subckt PM_PC3B05%U17_ngate2 90 100 105 112 179 184 189 195
c0 262 0 0.451317f
c1 253 0 0.535792f
c2 250 0 0.24874f
c3 249 0 1.00988f
c4 245 0 1.502f
c5 244 0 0.999059f
c6 241 0 0.0625815f
c7 240 0 4.82045f
c8 236 0 4.16424f
c9 234 0 0.639802f
c10 224 0 0.140349f
c11 220 0 0.189195f
c12 203 0 0.535897f
c13 202 0 0.188377f
c14 199 0 0.608605f
c15 198 0 0.169285f
c16 197 0 0.606477f
c17 196 0 0.169723f
c18 195 0 3.04886f
c19 189 0 3.04886f
c20 184 0 3.04886f
c21 179 0 3.04886f
c22 144 0 0.311365f
c23 139 0 12.667f
c24 129 0 0.684216f
c25 128 0 3.16115f
c26 123 0 3.12039f
c27 122 0 0.13299f
c28 120 0 0.0343464f
c29 117 0 0.0822206f
c30 116 0 0.233058f
c31 112 0 0.47622f
c32 110 0 0.0284138f
c33 109 0 0.038923f
c34 105 0 0.493641f
c35 100 0 1.53264f
c36 98 0 0.0691107f
c37 97 0 0.123067f
c38 95 0 0.66055f
c39 94 0 3.58736f
c40 90 0 2.22927f
c41 62 0 0.451504f
r42 247 249 0.105998 
r43 247 266 1.5 
r44 246 250 0.101378 
r45 245 249 0.0799283 
r46 245 246 1.464 
r47 244 250 0.0218969 
r48 243 262 0.000487805 
r49 259 243 0.055122 
r50 242 244 0.107207 
r51 242 243 1.5 
r52 240 250 0.101378 
r53 240 241 5.307 
r54 236 238 6 
r55 235 241 0.0458951 
r56 235 236 6.73067 
r57 234 238 0.708571 
r58 226 229 0.58625 
r59 224 226 0.0448391 
r60 224 225 0.0717241 
r61 220 222 6 
r62 219 234 0.0446983 
r63 219 220 0.254286 
r64 253 216 0.00142683 
r65 213 253 0.0277856 
r66 202 222 0.1025 
r67 199 253 5.05882 
r68 198 253 5.05882 
r69 197 203 5.05882 
r70 196 203 5.05882 
r71 191 199 3.88985 
r72 191 195 183.96 
r73 186 198 3.88985 
r74 186 189 183.96 
r75 181 197 3.88985 
r76 181 184 183.96 
r77 176 196 3.88985 
r78 176 179 183.96 
r79 143 144 0.245 
r80 202 143 0.04 
r81 129 232 0.742857 
r82 129 139 6 
r83 232 128 6 
r84 126 139 1.12267 
r85 229 126 6 
r86 123 229 2.98125 
r87 123 144 6 
r88 225 122 6 
r89 118 128 4.21429 
r90 117 122 0.0468966 
r91 120 112 0.545714 
r92 110 120 0.0464898 
r93 109 118 0.0464898 
r94 109 110 0.0430769 
r95 104 105 0.79 
r96 99 100 1.745 
r97 97 99 0.0451268 
r98 97 98 0.124211 
r99 96 116 0.0321994 
r100 95 104 0.0447517 
r101 95 96 0.647059 
r102 94 98 0.0451268 
r103 93 117 0.0448391 
r104 93 94 5.505 
r105 89 143 0.02 
r106 89 90 2.2575 
r107 88 116 0.010241 
r108 88 90 1.98 
r109 266 62 0.00195122 
r110 62 216 3 
r111 203 38 0.00142683 
r112 262 38 3 
r113 26 266 0.0536585 
r114 26 213 3 
r115 203 9 0.0277856 
r116 259 9 3 
.ends

.subckt PM_PC3B05%U29_ngate3 51 59 82 88
c0 123 0 14.3387f
c1 117 0 0.535641f
c2 116 0 1.24496f
c3 113 0 0.0711574f
c4 112 0 8.03417f
c5 111 0 4.70291f
c6 108 0 0.22953f
c7 105 0 0.344858f
c8 100 0 2.68944f
c9 90 0 0.608662f
c10 89 0 0.168886f
c11 88 0 3.04886f
c12 82 0 3.04886f
c13 59 0 0.00729216f
c14 51 0 1.71088f
c15 44 0 3.2228f
c16 26 0 0.441846f
r17 120 123 1.98933 
r18 114 116 0.141241 
r19 114 130 1.5 
r20 112 116 0.0804484 
r21 112 113 8.853 
r22 110 113 0.0447076 
r23 110 111 5.76615 
r24 120 108 6 
r25 106 108 6 
r26 105 111 0.0447914 
r27 105 106 0.273333 
r28 117 97 0.00142683 
r29 94 117 0.0277856 
r30 90 117 5.05882 
r31 89 117 5.05882 
r32 84 90 3.88985 
r33 84 88 183.96 
r34 79 89 3.88985 
r35 79 82 183.96 
r36 51 48 1.59714 
r37 100 48 6 
r38 45 103 3.29429 
r39 100 45 0.874286 
r40 45 123 6 
r41 44 59 4.93143 
r42 103 44 6 
r43 130 26 0.00292683 
r44 26 97 3 
r45 8 130 0.0526829 
r46 8 94 3 
.ends

.subckt PM_PC3B05%U29_U72_pgate 22 41 72 91 122 141 172 191 263 265 276 287 327
+ 333 338
c0 477 0 0.41464f
c1 474 0 0.306758f
c2 472 0 0.307529f
c3 471 0 0.307529f
c4 469 0 0.307529f
c5 468 0 0.28749f
c6 466 0 0.30792f
c7 465 0 0.307529f
c8 462 0 5.89806f
c9 460 0 0.223302f
c10 458 0 0.151681f
c11 456 0 16.0683f
c12 426 0 6.04459f
c13 424 0 0.514519f
c14 423 0 0.0958576f
c15 422 0 0.195658f
c16 418 0 0.775133f
c17 401 0 3.43266f
c18 400 0 0.0612176f
c19 399 0 0.0386035f
c20 398 0 5.23862f
c21 389 0 0.730208f
c22 372 0 5.79078f
c23 370 0 0.146254f
c24 369 0 0.0574345f
c25 364 0 0.0940331f
c26 360 0 0.0221982f
c27 359 0 0.0419399f
c28 357 0 0.0745758f
c29 354 0 2.24557f
c30 352 0 0.0639048f
c31 351 0 0.356053f
c32 345 0 0.0623778f
c33 342 0 0.352109f
c34 338 0 1.50727f
c35 333 0 0.988343f
c36 331 0 0.0474144f
c37 330 0 0.417086f
c38 329 0 0.164028f
c39 327 0 1.51391f
c40 287 0 2.52523f
c41 281 0 1.79168f
c42 276 0 2.26271f
c43 274 0 0.0535543f
c44 273 0 0.400586f
c45 261 0 5.1026f
c46 252 0 4.80867f
c47 251 0 0.371977f
c48 245 0 0.405311f
c49 239 0 0.370539f
c50 185 0 0.309607f
c51 176 0 4.91819f
c52 174 0 0.105999f
c53 166 0 0.309607f
c54 157 0 4.91956f
c55 155 0 0.105999f
c56 135 0 0.309607f
c57 126 0 4.91956f
c58 124 0 0.105999f
c59 116 0 0.309607f
c60 107 0 4.92186f
c61 105 0 0.106492f
c62 85 0 0.293407f
c63 76 0 4.89123f
c64 74 0 0.105999f
c65 66 0 0.309998f
c66 57 0 4.91478f
c67 55 0 0.105999f
c68 35 0 0.309607f
c69 26 0 4.91956f
c70 24 0 0.105999f
c71 16 0 6.01926f
c72 7 0 4.99529f
c73 5 0 0.129475f
r74 474 475 0.32439 
r75 473 474 0.220488 
r76 472 473 0.159415 
r77 471 472 0.32839 
r78 470 471 0.218537 
r79 469 470 0.161366 
r80 468 469 0.32839 
r81 465 466 0.32839 
r82 456 458 6 
r83 429 431 6 
r84 426 429 8.70933 
r85 426 458 6 
r86 422 431 0.0112 
r87 422 423 0.0514821 
r88 420 477 0.218537 
r89 475 420 0.165366 
r90 418 420 6 
r91 417 424 0.0142174 
r92 417 418 0.216585 
r93 412 473 6 
r94 408 470 6 
r95 408 412 0.706341 
r96 407 468 0.218537 
r97 466 407 0.161366 
r98 405 407 6 
r99 405 408 0.708293 
r100 403 465 0.219512 
r101 462 403 0.16039 
r102 401 403 6 
r103 401 405 0.709268 
r104 399 424 0.0327344 
r105 399 400 0.149677 
r106 398 400 0.0446983 
r107 423 398 10.3252 
r108 394 460 6 
r109 391 456 3.36774 
r110 453 391 11.4052 
r111 389 391 6 
r112 389 394 1.15143 
r113 386 450 6 
r114 383 386 0.706341 
r115 383 447 6 
r116 379 444 6 
r117 379 383 0.709268 
r118 376 378 6 
r119 376 379 0.710244 
r120 372 374 6 
r121 372 376 0.708293 
r122 369 370 0.12 
r123 366 369 0.0451268 
r124 362 460 0.218571 
r125 361 364 0.0785714 
r126 361 362 0.02 
r127 353 364 0.02 
r128 353 354 3.30571 
r129 351 354 0.0461631 
r130 351 352 0.30026 
r131 346 360 0.0327921 
r132 345 360 0.0327921 
r133 344 352 0.0449793 
r134 344 345 0.0967164 
r135 343 359 0.0343218 
r136 342 360 0.00972501 
r137 342 343 0.514286 
r138 337 359 0.00843222 
r139 337 338 1.59625 
r140 332 357 0.0200702 
r141 332 333 1.20375 
r142 330 359 0.0343218 
r143 330 331 0.614603 
r144 329 357 0.0982456 
r145 328 331 0.0452323 
r146 328 329 0.395385 
r147 346 327 1.59625 
r148 287 284 2.3375 
r149 370 284 6 
r150 366 281 2.67 
r151 281 453 6 
r152 280 287 2.0425 
r153 275 276 2.0425 
r154 274 280 0.0446983 
r155 273 275 0.0446983 
r156 273 274 0.51 
r157 261 265 394.95 
r158 477 260 2.81176 
r159 260 261 1.5 
r160 252 263 394.95 
r161 251 475 2.74706 
r162 251 252 1.5 
r163 249 265 394.95 
r164 248 249 1.5 
r165 450 245 0.218537 
r166 245 248 2.78235 
r167 242 450 0.165854 
r168 240 263 394.95 
r169 239 242 2.74706 
r170 239 240 1.5 
r171 185 242 0.323902 
r172 447 185 0.216585 
r173 177 474 2.07647 
r174 176 191 394.95 
r175 176 177 4.2601 
r176 175 185 2.07647 
r177 174 191 394.95 
r178 174 175 4.2601 
r179 166 447 0.163805 
r180 158 472 2.07647 
r181 157 172 394.95 
r182 157 158 4.2601 
r183 156 166 2.07647 
r184 155 172 394.95 
r185 155 156 4.2601 
r186 135 166 0.327902 
r187 444 135 0.217561 
r188 127 471 2.07647 
r189 126 141 394.95 
r190 126 127 4.2601 
r191 125 135 2.07647 
r192 124 141 394.95 
r193 124 125 4.2601 
r194 116 444 0.162829 
r195 108 469 2.07647 
r196 107 122 394.95 
r197 107 108 4.2601 
r198 106 116 2.07647 
r199 105 122 394.95 
r200 105 106 4.2601 
r201 85 116 0.327902 
r202 378 85 0.219512 
r203 77 468 2.07647 
r204 76 91 394.95 
r205 76 77 4.2601 
r206 75 85 2.07647 
r207 74 91 394.95 
r208 74 75 4.2601 
r209 66 378 0.160878 
r210 58 466 2.07647 
r211 57 72 394.95 
r212 57 58 4.2601 
r213 56 66 2.07647 
r214 55 72 394.95 
r215 55 56 4.2601 
r216 35 66 0.327902 
r217 374 35 0.219512 
r218 27 465 2.07647 
r219 26 41 394.95 
r220 26 27 4.2601 
r221 25 35 2.07647 
r222 24 41 394.95 
r223 24 25 4.2601 
r224 16 374 0.160878 
r225 8 462 2.07647 
r226 7 22 394.95 
r227 7 8 4.2601 
r228 6 16 2.07647 
r229 5 22 394.95 
r230 5 6 4.2601 
.ends

.subckt PM_PC3B05%U30_pgate 31 38 43 50 57 66 73 117 122 147 194 200
c0 216 0 2.87253f
c1 204 0 1.20506f
c2 200 0 0.00447021f
c3 194 0 0.00533422f
c4 183 0 15.9724f
c5 181 0 0.992437f
c6 178 0 0.808629f
c7 176 0 1.50352f
c8 172 0 1.49786f
c9 156 0 0.122651f
c10 152 0 2.0033f
c11 149 0 0.0585713f
c12 148 0 0.191687f
c13 147 0 0.00280858f
c14 122 0 0.0118835f
c15 117 0 0.0118835f
c16 100 0 0.860421f
c17 99 0 2.82538f
c18 96 0 0.803769f
c19 95 0 2.8087f
c20 92 0 1.45383f
c21 91 0 0.205618f
c22 89 0 0.301741f
c23 85 0 0.028277f
c24 83 0 0.028277f
c25 81 0 0.0264067f
c26 79 0 0.028277f
c27 78 0 0.0355056f
c28 73 0 1.43945f
c29 70 0 0.376276f
c30 66 0 1.38073f
c31 63 0 0.262147f
c32 61 0 0.444867f
c33 57 0 1.47614f
c34 54 0 0.290071f
c35 50 0 2.80124f
c36 48 0 0.0478882f
c37 47 0 0.289443f
c38 43 0 2.76389f
c39 38 0 2.21892f
c40 36 0 0.0505388f
c41 35 0 0.332414f
c42 31 0 2.20072f
r43 212 213 0.636 
r44 211 212 0.190667 
r45 209 211 6.42267 
r46 186 216 6 
r47 213 183 3.61733 
r48 181 183 6 
r49 181 186 1.65857 
r50 178 204 6 
r51 176 200 1.43125 
r52 174 176 6 
r53 174 178 0.518356 
r54 172 194 1.4325 
r55 170 172 6 
r56 170 174 0.516164 
r57 156 159 0.0449572 
r58 156 157 0.0814286 