* File: pc3d21d.dist.sp.pex
* Created: Sun Jul  4 12:30:51 2010
* Program "Calibre xRC"
* Version "v2008.4_19.14"
* Nominal Temperature: 27C
* Circuit Temperature: 27C
* 
.subckt PM_PC3D21D%net_m33_VDDO_res 8 39
c0 39 0 2.11805f
c1 34 0 1.27753f
c2 18 0 0.0719626f
c3 15 0 0.147706f
c4 10 0 0.0679009f
c5 9 0 0.634198f
c6 8 0 0.312737f
c7 6 0 0.185541f
r8 36 39 3.87662 
r9 17 34 43.5 
r10 16 34 49.5 
r11 18 15 16.5 
r12 11 18 4.13452 
r13 10 16 3.35237 
r14 9 15 3.35237 
r15 9 10 56.025 
r16 11 8 6.95493 
r17 7 36 1.62175 
r18 7 8 5.625 
r19 6 17 3.35237 
r20 6 8 5.625 
.ends

.subckt PM_PC3D21D%U14_padr 12 72 84 169 171 173 175 185 218
c0 303 0 15.9714f
c1 298 0 9.31822f
c2 291 0 1.94142f
c3 287 0 15.7437f
c4 279 0 5.29967f
c5 276 0 0.167624f
c6 273 0 5.6414f
c7 271 0 0.501133f
c8 269 0 0.0674659f
c9 268 0 0.207306f
c10 267 0 0.394066f
c11 262 0 0.639526f
c12 256 0 0.966611f
c13 253 0 0.103214f
c14 252 0 0.0311661f
c15 249 0 1.74961f
c16 239 0 2.33938f
c17 233 0 0.588664f
c18 230 0 0.428337f
c19 225 0 0.0767591f
c20 224 0 0.489946f
c21 221 0 0.664012f
c22 219 0 0.704333f
c23 218 0 5.5788e-21
c24 196 0 0.183683f
c25 185 0 1.32521f
c26 183 0 15.9805f
c27 175 0 0.512693f
c28 173 0 0.880169f
c29 171 0 0.731369f
c30 169 0 0.810351f
c31 138 0 0.113797f
c32 131 0 0.508135f
c33 126 0 0.549878f
c34 123 0 0.435871f
c35 116 0 0.0565332f
c36 115 0 0.0423217f
c37 114 0 0.0207942f
c38 113 0 0.136586f
c39 110 0 1.18478f
c40 108 0 0.573578f
c41 104 0 0.179402f
c42 103 0 0.056318f
c43 102 0 0.539889f
c44 100 0 0.0826348f
c45 98 0 0.08181f
c46 96 0 0.0305866f
c47 95 0 0.112429f
c48 94 0 0.0394896f
c49 93 0 0.118347f
c50 90 0 0.155898f
c51 88 0 0.0362232f
c52 87 0 0.144751f
c53 84 0 1.39843f
c54 81 0 0.0515364f
c55 80 0 0.513227f
c56 79 0 0.0568446f
c57 78 0 0.604834f
c58 77 0 0.0421449f
c59 76 0 0.387555f
c60 72 0 1.72817f
c61 34 0 0.0702956f
c62 32 0 0.114202f
c63 29 0 0.0787491f
c64 19 0 0.104376f
c65 18 0 0.0302578f
c66 17 0 0.0479459f
c67 16 0 0.0834252f
c68 12 0 1.0606f
r69 303 289 0.172857 
r70 287 289 6 
r71 283 285 6.38667 
r72 279 303 2 
r73 277 279 10.3129 
r74 298 273 0.185079 
r75 271 273 1.2 
r76 270 271 0.482857 
r77 268 270 0.0446983 
r78 268 269 0.125714 
r79 267 269 0.0446983 
r80 262 291 6 
r81 260 276 0.15871 
r82 260 262 0.867097 
r83 258 287 2.584 
r84 285 258 6.00667 
r85 256 258 6 
r86 276 256 1.56387 
r87 252 253 0.0636735 
r88 248 252 0.0473078 
r89 232 291 2.38452 
r90 224 232 0.0446983 
r91 224 225 0.619355 
r92 221 225 0.0456388 
r93 220 230 0.0200258 
r94 220 221 0.791 
r95 219 298 0.18836 
r96 218 230 0.00412903 
r97 182 183 1.136 
r98 164 173 95.1667 
r99 147 169 95.6667 
r100 140 196 0.0671698 
r101 253 140 6 
r102 249 138 6 
r103 248 135 0.7375 
r104 249 135 2.8475 
r105 135 183 6 
r106 246 134 6 
r107 131 246 1.25 
r108 131 285 6 
r109 185 130 1.5325 
r110 239 130 6 
r111 127 242 0.7875 
r112 239 127 2.88 
r113 127 182 6 
r114 242 126 6 
r115 123 237 0.482667 
r116 123 283 6 
r117 122 182 5.42667 
r118 237 122 6 
r119 116 164 1.6393 
r120 115 138 0.0305882 
r121 113 134 0.104267 
r122 112 126 0.895 
r123 111 185 1.3775 
r124 116 110 0.0750515 
r125 109 196 0.02 
r126 109 110 2.82545 
r127 107 108 2.57125 
r128 103 104 0.158161 
r129 101 102 1.59619 
r130 100 114 0.0383557 
r131 99 103 0.0484865 
r132 99 100 0.218462 
r133 98 115 0.0450655 
r134 97 114 0.0383557 
r135 97 98 0.206897 
r136 95 108 0.0446983 
r137 95 96 0.19625 
r138 94 113 0.0446983 
r139 93 107 0.0446983 
r140 93 94 0.19625 
r141 90 147 1.42502 
r142 89 96 0.0446983 
r143 89 90 0.175 
r144 87 114 0.00526525 
r145 87 88 0.33 
r146 83 88 0.0446983 
r147 83 84 1.2575 
r148 82 84 1.3775 
r149 80 102 0.045798 
r150 80 81 0.689157 
r151 79 112 0.0470638 
r152 78 101 0.0472491 
r153 78 79 0.6325 
r154 77 111 0.0447588 
r155 76 82 0.0447588 
r156 76 77 0.544 
r157 71 81 0.0456764 
r158 71 72 2.05 
r159 34 104 6.08333 
r160 33 34 1.52074 
r161 32 175 51.6667 
r162 32 33 5.99862 
r163 30 104 6.41667 
r164 29 30 1.5 
r165 28 171 80.8333 
r166 28 29 6.1393 
r167 233 21 0.30381 
r168 19 21 3 
r169 18 19 0.109474 
r170 277 17 0.0446983 
r171 18 16 0.0456991 
r172 16 17 0.147143 
r173 13 267 0.407619 
r174 13 233 0.0446983 
r175 219 12 0.0147368 
.ends

.subckt PM_PC3D21D%VSSO 167 330 493 556 564 604 610 908 912 919 948 955 967 979
+ 981 989 995 999 1006 1013 1019 1031 1073 1077 1083 1089
c0 1089 0 31.3699f
c1 1076 0 3.52185f
c2 1073 0 19.4677f
c3 1066 0 7.92036f
c4 1064 0 6.9617f
c5 1058 0 6.96195f
c6 1053 0 6.96199f
c7 1047 0 6.96197f
c8 1042 0 6.96025f
c9 1031 0 0.00200359f
c10 1026 0 8.95235f
c11 1019 0 0.319472f
c12 1013 0 0.331309f
c13 999 0 1.39251f
c14 995 0 1.34465f
c15 984 0 1.96897f
c16 981 0 0.00103801f
c17 979 0 8.25608e-19
c18 977 0 8.96457f
c19 965 0 7.8496f
c20 961 0 1.27875f
c21 951 0 1.65601f
c22 948 0 58.262f
c23 915 0 1.31273f
c24 912 0 10.6369f
c25 905 0 0.174831f
c26 903 0 0.191221f
c27 900 0 0.0212919f
c28 893 0 2.20754f
c29 883 0 9.67275f
c30 882 0 2.54594f
c31 880 0 0.0574344f
c32 879 0 0.212005f
c33 877 0 0.086847f
c34 875 0 1.28262f
c35 874 0 0.0204193f
c36 871 0 0.0328226f
c37 869 0 0.107983f
c38 868 0 0.0484324f
c39 867 0 1.50948f
c40 864 0 2.70895f
c41 861 0 0.475243f
c42 860 0 0.0594287f
c43 859 0 0.293756f
c44 857 0 10.9177f
c45 856 0 0.725625f
c46 846 0 0.708327f
c47 844 0 3.2432f
c48 842 0 0.383003f
c49 841 0 0.713156f
c50 840 0 0.297488f
c51 839 0 3.26314f
c52 838 0 0.383249f
c53 837 0 0.0689962f
c54 836 0 0.351569f
c55 803 0 0.122915f
c56 802 0 8.7061f
c57 772 0 0.269574f
c58 768 0 7.03694f
c59 766 0 0.146306f
c60 615 0 0.094983f
c61 610 0 0.00373164f
c62 604 0 0.572086f
c63 584 0 3.05309f
c64 582 0 0.618586f
c65 580 0 0.0956278f
c66 578 0 0.0273444f
c67 576 0 0.237144f
c68 571 0 0.0142283f
c69 564 0 1.63793f
c70 556 0 0.56678f
c71 506 0 5.37124f
c72 408 0 14.0389f
c73 358 0 14.0381f
c74 245 0 14.039f
c75 195 0 14.0391f
c76 32 0 14.0364f
c77 10 0 0.146306f
r78 1087 1089 0.00282778 
r79 1086 1087 0.355444 
r80 1083 1086 0.00283333 
r81 1079 1080 0.0111317 
r82 1076 1079 0.0090538 
r83 1076 1077 0.02 
r84 1070 1071 0.160909 
r85 1035 1036 0.0140639 
r86 1030 1031 0.0126606 
r87 1066 1028 0.0113761 
r88 1026 1028 0.0638298 
r89 1023 1071 2 
r90 1019 1023 0.000761905 
r91 1013 1070 2 
r92 979 1030 0.013211 
r93 1026 979 0.000917431 
r94 977 979 0.000913242 
r95 977 1035 0.0638298 
r96 966 967 0.02 
r97 965 1035 0.0113242 
r98 963 965 0.0327869 
r99 963 966 0.0178092 
r100 961 963 0.029258 
r101 958 1087 0.357143 
r102 955 958 0.21 
r103 953 1073 0.00544385 
r104 1071 953 0.0327273 
r105 951 953 1 
r106 951 955 0.445 
r107 946 948 0.00612761 
r108 946 1066 0.0327869 
r109 1060 944 0.00301483 
r110 944 1064 0.00301741 
r111 942 944 0.0266667 
r112 942 946 0.0287785 
r113 1006 941 0.130435 
r114 941 1058 0.00301741 
r115 1055 941 0.00301741 
r116 939 941 0.0266667 
r117 939 942 0.0242129 
r118 1049 938 0.00301483 
r119 938 1053 0.00301741 
r120 936 938 0.0266667 
r121 936 939 0.0242129 
r122 935 936 0.000615582 
r123 989 934 0.130435 
r124 934 1047 0.00301741 
r125 1044 934 0.00301741 
r126 932 934 0.0266667 
r127 932 935 0.0235973 
r128 1038 931 0.00301483 
r129 931 1042 0.00301741 
r130 929 931 0.0266667 
r131 929 932 0.0242129 
r132 928 961 0.02 
r133 928 929 0.0277012 
r134 966 925 0.428315 
r135 922 1086 0.357143 
r136 919 922 0.21 
r137 917 1082 0.148897 
r138 1080 917 0.0151391 
r139 915 917 1 
r140 915 919 0.445 
r141 904 1070 0.118984 
r142 904 905 0.00169958 
r143 892 905 0.0880724 
r144 892 893 4.02 
r145 999 890 0.445 
r146 888 890 0.75 
r147 888 891 0.0792513 
r148 995 887 0.365 
r149 885 887 0.6 
r150 885 888 0.0219251 
r151 884 903 0.00185772 
r152 884 885 0.0203209 
r153 883 905 0.00169958 
r154 883 891 0.0168984 
r155 881 903 0.0857909 
r156 881 882 3.63314 
r157 879 882 0.0448303 
r158 879 880 0.199481 
r159 876 880 0.0447008 
r160 876 877 0.0831579 
r161 874 875 0.109474 
r162 874 871 0.0429996 
r163 871 900 0.0914286 
r164 868 869 0.135 
r165 867 868 0.0448391 
r166 866 867 2.75862 
r167 864 984 6 
r168 861 900 0.0429996 
r169 861 864 0.0694737 
r170 859 866 0.044715 
r171 859 860 0.466667 
r172 858 1079 0.02 
r173 857 903 0.00185772 
r174 857 858 0.173904 
r175 856 860 0.0450432 
r176 1082 856 1.29371 
r177 848 1031 0.230275 
r178 846 1026 0.210275 
r179 845 984 3.78429 
r180 843 981 0.229041 
r181 843 844 0.0863581 
r182 841 977 0.209132 
r183 841 842 0.0863581 
r184 848 839 0.0861375 
r185 839 840 0.132033 
r186 846 838 0.0861375 
r187 836 845 0.0446983 
r188 836 837 0.542857 
r189 833 837 0.0449572 
r190 803 979 0.128 
r191 802 840 0.0473573 
r192 802 979 0.126 
r193 772 803 0.0473573 
r194 844 772 0.132033 
r195 768 979 0.126 
r196 767 979 0.128 
r197 766 767 0.0473573 
r198 766 842 0.250407 
r199 584 610 4.92 
r200 893 584 6 
r201 891 582 0.75 
r202 580 615 0.04 
r203 877 580 3 
r204 578 604 0.0494737 
r205 875 578 2 
r206 833 576 0.2775 
r207 869 576 6 
r208 571 582 0.437895 
r209 571 572 0.0407126 
r210 572 564 2.31765 
r211 615 556 0.340267 
r212 509 912 0.0419737 
r213 908 509 0.0413851 
r214 935 509 0.00128205 
r215 925 506 2.21804 
r216 506 1080 0.6 
r217 944 493 0.130435 
r218 1006 408 0.00313778 
r219 1058 408 0.0652174 
r220 493 398 0.0031351 
r221 1060 398 0.0652174 
r222 358 493 0.00314046 
r223 1064 358 0.0652174 
r224 1028 347 0.0141284 
r225 347 1030 0.0652174 
r226 938 330 0.130435 
r227 989 245 0.00313778 
r228 1047 245 0.0652174 
r229 330 235 0.0031351 
r230 1049 235 0.0652174 
r231 195 330 0.00314046 
r232 1053 195 0.0652174 
r233 185 1006 0.00313778 
r234 1055 185 0.0652174 
r235 931 167 0.130435 
r236 82 981 0.0126027 
r237 979 82 0.0131507 
r238 1036 82 0.0652174 
r239 167 72 0.0031351 
r240 1038 72 0.0652174 
r241 32 167 0.00314046 
r242 1042 32 0.0652174 
r243 22 989 0.00313778 
r244 1044 22 0.0652174 
r245 10 838 0.250407 
r246 10 768 0.0473573 
.ends

.subckt PM_PC3D21D%VSS 818 888 910 953 962 974 977 983
c0 983 0 88.6876f
c1 974 0 49.6929f
c2 961 0 54.8682f
c3 959 0 2.3768f
c4 953 0 0.00116039f
c5 950 0 1.11605f
c6 927 0 2.39041f
c7 918 0 12.4244f
c8 917 0 1.77327f
c9 907 0 1.88751f
c10 899 0 15.0095f
c11 885 0 1.45648f
c12 882 0 2.50412f
c13 846 0 25.3375f
c14 833 0 0.0691108f
c15 832 0 0.0657389f
c16 831 0 6.13631f
c17 830 0 0.745402f
c18 829 0 0.269279f
c19 826 0 0.0372194f
c20 818 0 2.07373f
c21 816 0 6.69193f
c22 815 0 0.218207f
c23 813 0 0.69473f
c24 806 0 8.59778f
c25 804 0 0.255493f
c26 803 0 0.0856199f
c27 802 0 1.18476f
c28 696 0 2.50366f
c29 688 0 0.442566f
c30 686 0 0.255586f
c31 684 0 0.271526f
c32 681 0 24.5337f
c33 676 0 1.0863f
c34 675 0 6.52093f
c35 674 0 0.192795f
c36 669 0 2.10084f
c37 666 0 1.61909f
c38 663 0 0.135881f
c39 662 0 2.46923f
c40 661 0 0.119796f
c41 660 0 0.382053f
c42 659 0 2.03478f
c43 573 0 0.162892f
c44 571 0 0.72248f
c45 569 0 0.203897f
c46 544 0 2.94311f
c47 530 0 3.05953f
c48 528 0 0.031054f
c49 524 0 6.24623f
c50 523 0 0.161087f
c51 508 0 5.68764f
c52 505 0 3.2536f
r53 981 983 0.000702051 
r54 980 981 0.0832563 
r55 977 980 0.000703354 
r56 973 974 0.00318245 
r57 970 971 0.0645663 
r58 969 970 0.102493 
r59 968 969 0.128574 
r60 967 968 0.0141176 
r61 966 967 0.00135593 
r62 959 973 0.461538 
r63 950 953 1.5675 
r64 950 970 1.5 
r65 947 969 0.0535714 
r66 927 966 0.6 
r67 925 961 0.0297924 
r68 925 927 3.23529 
r69 917 961 0.0158586 
r70 917 918 1.016 
r71 914 973 0.00119641 
r72 971 914 0.110269 
r73 912 914 0.428571 
r74 910 912 0.189 
r75 907 910 0.013 
r76 907 981 0.131579 
r77 903 904 1.13584 
r78 902 903 0.55797 
r79 899 902 0.628223 
r80 899 971 0.3 
r81 892 966 0.0882951 
r82 962 892 0.00438684 
r83 890 892 0.428571 
r84 888 890 0.189 
r85 885 888 0.013 
r86 885 980 0.131579 
r87 955 882 1 
r88 845 879 0.02 
r89 845 846 0.9662 
r90 831 947 2.7305 
r91 831 832 0.0338756 
r92 825 833 0.0338756 
r93 824 832 0.0338756 
r94 821 833 0.00880368 
r95 820 832 0.00880368 
r96 818 874 2.59036 
r97 955 818 1.07807 
r98 821 818 0.88 
r99 820 818 1.064 
r100 817 961 0.0158586 
r101 817 818 1.9975 
r102 816 833 0.0338756 
r103 829 815 0.0632911 
r104 815 813 0.0574488 
r105 812 826 0.0448201 
r106 809 959 1.518 
r107 808 959 0.426 
r108 806 874 1.08482 
r109 804 955 1.06072 
r110 803 918 0.056 
r111 802 803 0.0448201 
r112 802 812 2.13041 
r113 816 699 0.592 
r114 818 699 1.93 
r115 693 947 1.612 
r116 826 693 1.283 
r117 693 968 1.5 
r118 696 688 2 
r119 903 688 2 
r120 699 686 3 
r121 902 686 3 
r122 684 874 3 
r123 904 684 3 
r124 681 896 1.1314 
r125 681 967 0.125 
r126 680 882 0.0075 
r127 879 680 0.056 
r128 896 680 0.24 
r129 678 830 0.102486 
r130 678 829 0.0155975 
r131 846 678 1 
r132 676 825 0.6415 
r133 809 676 0.0446983 
r134 675 824 0.6415 
r135 808 675 0.0446983 
r136 673 696 0.319594 
r137 673 674 0.0100156 
r138 668 669 1.37048 
r139 667 674 0.065217 
r140 666 668 0.0447067 
r141 666 667 1.0122 
r142 663 664 0.678222 
r143 662 669 0.0447675 
r144 662 664 0.650667 
r145 660 674 0.065217 
r146 660 661 0.254146 
r147 659 663 0.0448242 
r148 658 661 0.0446983 
r149 658 659 1.4039 
r150 572 573 0.147619 
r151 568 569 0.14988 
r152 806 568 0.0380723 
r153 565 567 0.143333 
r154 804 564 0.0385542 
r155 562 564 0.14506 
r156 818 561 0.159 
r157 544 818 0.159 
r158 543 573 0.02 
r159 543 561 1.247 
r160 542 569 0.02 
r161 542 544 1.243 
r162 818 541 0.192 
r163 539 818 0.192 
r164 538 539 0.342 
r165 818 538 0.192 
r166 536 818 0.192 
r167 535 536 0.342 
r168 818 535 0.192 
r169 533 818 0.192 
r170 532 533 0.342 
r171 818 532 0.192 
r172 530 818 0.192 
r173 529 572 0.02 
r174 529 541 1.214 
r175 528 571 0.04 
r176 528 530 0.243 
r177 526 568 0.02 
r178 526 571 0.938734 
r179 524 572 0.0380952 
r180 524 830 4.80524 
r181 523 813 0.555238 
r182 523 567 0.0380952 
r183 818 519 0.159 
r184 517 818 0.159 
r185 516 517 0.408 
r186 818 516 0.159 
r187 514 818 0.159 
r188 513 514 0.408 
r189 818 513 0.159 
r190 511 818 0.159 
r191 510 511 0.408 
r192 818 510 0.159 
r193 508 818 0.159 
r194 507 567 0.02 
r195 507 519 1.247 
r196 506 564 0.02 
r197 506 508 1.243 
r198 505 565 0.02 
r199 504 562 0.02 
r200 504 505 4.69271 
.ends

.subckt PM_PC3D21D%U14_MN4$11_gate 98 103 219 224 340 345 410 415 420 425 430
+ 435 449
c0 608 0 0.262319f
c1 599 0 0.434391f
c2 594 0 0.434851f
c3 589 0 0.434575f
c4 584 0 0.435587f
c5 572 0 2.53433f
c6 568 0 0.236421f
c7 553 0 1.11308f
c8 552 0 0.431447f
c9 544 0 0.834078f
c10 542 0 1.1253f
c11 538 0 0.826643f
c12 532 0 0.831111f
c13 526 0 0.840249f
c14 524 0 0.265083f
c15 522 0 0.154919f
c16 519 0 0.549905f
c17 516 0 0.0542673f
c18 515 0 0.491336f
c19 514 0 0.0454806f
c20 512 0 0.877133f
c21 511 0 0.746487f
c22 507 0 1.12148f
c23 503 0 1.12251f
c24 502 0 0.166461f
c25 501 0 8.91614f
c26 498 0 7.05495f
c27 495 0 0.470146f
c28 492 0 15.6538f
c29 487 0 1.41523f
c30 485 0 0.126896f
c31 480 0 0.113594f
c32 474 0 0.678933f
c33 473 0 0.0631592f
c34 464 0 0.535943f
c35 456 0 0.535994f
c36 450 0 0.299915f
c37 449 0 0.233998f
c38 442 0 0.166246f
c39 441 0 0.608776f
c40 440 0 0.169456f
c41 439 0 0.609004f
c42 438 0 0.169342f
c43 437 0 0.539737f
c44 435 0 3.10106f
c45 430 0 3.04886f
c46 425 0 3.04886f
c47 420 0 3.04886f
c48 415 0 3.04886f
c49 410 0 3.10216f
c50 354 0 0.974344f
c51 345 0 3.04886f
c52 344 0 0.168943f
c53 340 0 3.04886f
c54 339 0 0.168259f
c55 236 0 0.972748f
c56 224 0 3.04886f
c57 223 0 0.16995f
c58 219 0 3.04886f
c59 218 0 0.170025f
c60 115 0 0.975477f
c61 103 0 3.04886f
c62 102 0 0.169855f
c63 98 0 3.04886f
c64 97 0 0.169912f
r65 601 603 0.0556098 
r66 566 568 6 
r67 603 552 0.000487805 
r68 550 552 1.5 
r69 550 553 0.118418 
r70 546 599 0.00195122 
r71 596 546 0.0536585 
r72 544 546 1.5 
r73 544 548 0.0693333 
r74 540 594 0.000487805 
r75 591 540 0.055122 
r76 538 540 1.5 
r77 538 542 0.0701687 
r78 534 589 0.00292683 
r79 586 534 0.0526829 
r80 532 534 1.5 
r81 532 536 0.0696651 
r82 528 584 0.00536585 
r83 581 528 0.0502439 
r84 526 528 1.5 
r85 526 530 0.0715479 
r86 577 524 0.0521951 
r87 522 524 3 
r88 521 608 0.00341463 
r89 519 521 3 
r90 518 519 0.0609362 
r91 517 519 0.145021 
r92 515 518 0.0604945 
r93 515 516 0.444 
r94 513 516 0.0453233 
r95 513 514 0.08 
r96 550 512 0.101228 
r97 511 514 0.0453233 
r98 511 512 0.926 
r99 510 548 0.02 
r100 553 510 1.459 
r101 508 542 0.0200096 
r102 507 548 0.02 
r103 507 508 1.47 
r104 506 536 0.02 
r105 542 506 1.475 
r106 504 530 0.0200098 
r107 503 536 0.02 
r108 503 504 1.472 
r109 501 517 0.0604945 
r110 501 502 10.879 
r111 498 568 6 
r112 522 496 0.0524051 
r113 496 498 3.76212 
r114 495 522 0.00124031 
r115 494 502 0.0631505 
r116 494 495 0.130853 
r117 566 492 15.6586 
r118 490 492 6 
r119 487 490 1.388 
r120 487 572 6 
r121 484 572 3.376 
r122 480 485 0.0933197 
r123 473 484 0.0447517 
r124 485 473 0.157176 
r125 480 449 0.0666667 
r126 442 474 1.85294 
r127 441 464 5.05882 
r128 440 464 5.05882 
r129 439 456 5.05882 
r130 438 456 5.05882 
r131 437 450 1.85294 
r132 432 442 3.88985 
r133 432 435 183.96 
r134 427 441 3.88985 
r135 427 430 183.96 
r136 422 440 3.88985 
r137 422 425 183.96 
r138 417 439 3.88985 
r139 417 420 183.96 
r140 412 438 3.88985 
r141 412 415 183.96 
r142 407 437 3.88985 
r143 407 410 183.96 
r144 350 354 5.05882 
r145 349 354 5.05882 
r146 344 350 3.88985 
r147 344 345 183.96 
r148 339 349 3.88985 
r149 339 340 183.96 
r150 464 298 0.00142683 
r151 599 298 3 
r152 354 287 0.00133393 
r153 601 287 3 
r154 354 262 0.0278113 
r155 603 262 3 
r156 474 251 0.00142683 
r157 608 251 3 
r158 229 236 5.05882 
r159 228 236 5.05882 
r160 223 229 3.88985 
r161 223 224 183.96 
r162 218 228 3.88985 
r163 218 219 183.96 
r164 456 177 0.00142683 
r165 589 177 3 
r166 236 166 0.00133393 
r167 591 166 3 
r168 141 236 0.0278113 
r169 594 141 3 
r170 464 130 0.0277856 
r171 596 130 3 
r172 108 115 5.05882 
r173 107 115 5.05882 
r174 102 108 3.88985 
r175 102 103 183.96 
r176 97 107 3.88985 
r177 97 98 183.96 
r178 450 56 0.00142683 
r179 577 56 3 
r180 115 45 0.00133393 
r181 581 45 3 
r182 20 115 0.0278113 
r183 584 20 3 
r184 456 9 0.0277856 
r185 586 9 3 
.ends

.subckt PM_PC3D21D%net_m32_VDDO_res 7 33
c0 33 0 1.64729f
c1 29 0 0.154755f
c2 17 0 0.168477f
c3 16 0 0.774332f
c4 15 0 1.58064f
c5 14 0 0.0855555f
c6 10 0 0.0821941f
c7 9 0 0.114234f
c8 7 0 0.370573f
r9 16 33 2.05452 
r10 16 17 8.75861 
r11 15 29 66.7742 
r12 14 29 60.5806 
r13 11 15 3.35663 
r14 11 17 11.5758 
r15 10 14 3.35347 
r16 9 10 6.625 
r17 6 9 4.5965 
r18 6 7 4.56364 
.ends

.subckt PM_PC3D21D%VDDO 21 828 896 907 918 929 940 951 962 977 1195 1204 1207
+ 1282 1291 1293 1297 1598 1602 1605 1609 1617 1624 1631 1640 1650 1663 1669 1675
+ 1720 1732 1735 1740
c0 1740 0 20.331f
c1 1732 0 46.8932f
c2 1718 0 8.85359f
c3 1714 0 3.07874f
c4 1683 0 9.57209f
c5 1675 0 1.05183f
c6 1669 0 0.967487f
c7 1663 0 2.02376f
c8 1660 0 3.35178f
c9 1647 0 0.505312f
c10 1643 0 30.2873f
c11 1642 0 1.97484f
c12 1640 0 62.8661f
c13 1623 0 50.9197f
c14 1614 0 0.696813f
c15 1612 0 1.24538f
c16 1609 0 3.00652f
c17 1602 0 2.49843f
c18 1596 0 0.13036f
c19 1591 0 0.0724239f
c20 1589 0 1.09396f
c21 1582 0 0.330853f
c22 1578 0 0.15028f
c23 1572 0 0.229821f
c24 1568 0 0.661063f
c25 1564 0 0.347854f
c26 1560 0 0.206527f
c27 1554 0 2.8351f
c28 1552 0 0.737386f
c29 1548 0 0.446029f
c30 1543 0 1.52944f
c31 1541 0 0.988028f
c32 1539 0 0.0714314f
c33 1538 0 0.111846f
c34 1533 0 0.0918055f
c35 1532 0 2.73863f
c36 1531 0 0.0461449f
c37 1530 0 0.672737f
c38 1527 0 0.245893f
c39 1488 0 9.76182f
c40 1479 0 0.823539f
c41 1313 0 1.67177f
c42 1297 0 0.598525f
c43 1293 0 0.525629f
c44 1291 0 0.435972f
c45 1282 0 0.0819925f
c46 1247 0 0.119988f
c47 1239 0 0.470345f
c48 1236 0 0.419654f
c49 1235 0 0.114225f
c50 1233 0 0.00686422f
c51 1231 0 8.24928f
c52 1230 0 9.00335f
c53 1219 0 0.0962101f
c54 1207 0 0.329267f
c55 1204 0 0.667752f
c56 1202 0 0.0301061f
c57 1201 0 0.86994f
c58 1195 0 1.25664f
c59 1124 0 3.63084f
c60 1089 0 5.39118f
c61 1074 0 1.29937f
c62 1070 0 0.615713f
c63 1066 0 8.82846f
c64 1064 0 6.7868f
c65 1062 0 0.588747f
c66 1056 0 0.170971f
c67 1053 0 0.0533066f
c68 1051 0 0.0989764f
c69 977 0 7.73649f
c70 969 0 7.33964f
c71 966 0 11.7156f
c72 955 0 19.4869f
c73 944 0 19.4869f
c74 933 0 19.5155f
c75 922 0 19.4869f
c76 911 0 19.4869f
c77 900 0 11.8383f
c78 853 0 0.210878f
c79 816 0 0.0533066f
c80 805 0 0.12462f
c81 804 0 5.89132f
c82 801 0 0.104443f
c83 800 0 6.15803f
c84 21 0 0.600986f
c85 17 0 0.486838f
c86 16 0 6.72918f
c87 7 0 0.152029f
c88 6 0 6.75738f
r89 1735 1738 0.00394881 
r90 1729 1730 0.337342 
r91 1728 1729 0.0141176 
r92 1727 1728 0.020305 
r93 1726 1727 0.0881046 
r94 1725 1726 0.0270153 
r95 1724 1725 0.0699782 
r96 1717 1718 0.0228571 
r97 1716 1732 0.00304139 
r98 1730 1716 0.00174292 
r99 1714 1716 0.461538 
r100 1678 1729 0.5 
r101 1675 1678 0.4025 
r102 1672 1728 0.5 
r103 1669 1672 0.28 
r104 1666 1725 0.5 
r105 1663 1666 1.455 
r106 1662 1724 0.00174292 
r107 1720 1662 0.00305011 
r108 1660 1662 0.461538 
r109 1654 1740 0.0039415 
r110 1738 1654 0.467422 
r111 1652 1654 0.5 
r112 1650 1652 0.181 
r113 1647 1650 0.17 
r114 1647 1730 1.5 
r115 1644 1645 0.5433 
r116 1643 1644 0.2247 
r117 1642 1645 0.099 
r118 1638 1640 0.0136564 
r119 1637 1638 0.0314855 
r120 1636 1637 0.0601494 
r121 1635 1636 0.0634357 
r122 1634 1635 0.0334274 
r123 1631 1634 0.01361 
r124 1620 1738 0.5 
r125 1617 1620 0.181 
r126 1614 1617 0.17 
r127 1614 1724 1.5 
r128 1612 1643 0.5293 
r129 1594 1596 0.12 
r130 1584 1587 3 
r131 1683 1584 0.0677429 
r132 1582 1584 3 
r133 1683 1574 0.1116 
r134 1711 1574 0.0028 
r135 1572 1574 6 
r136 1557 1717 6 
r137 1552 1554 6 
r138 1552 1557 0.752258 
r139 1545 1596 0.02 
r140 1542 1594 0.02 
r141 1542 1543 2.92286 
r142 1591 1540 0.0456991 
r143 1540 1541 2.06857 
r144 1538 1541 0.0446983 
r145 1538 1539 0.0971429 
r146 1536 1539 0.0446983 
r147 1536 1589 1.64571 
r148 1534 1554 2.907 
r149 1533 1717 0.0571429 
r150 1532 1533 0.0579048 
r151 1530 1534 0.0448005 
r152 1530 1531 0.685977 
r153 1526 1531 0.050458 
r154 1526 1527 0.12 
r155 1718 1492 4.41806 
r156 1488 1711 0.2648 
r157 1487 1711 0.2664 
r158 1486 1711 0.2664 
r159 1479 1527 7.46512 
r160 1478 1527 7.46512 
r161 1306 1564 1 
r162 1532 1303 2.9859 
r163 1303 1568 1.2 
r164 1288 1578 3 
r165 1285 1288 0.2885 
r166 1285 1560 2 
r167 1282 1285 2.755 
r168 1281 1282 1.8985 
r169 1280 1281 0.425 
r170 1572 1260 0.000149533 
r171 1612 1259 0.0555566 
r172 1259 1260 6 
r173 1258 1587 0.0444444 
r174 1582 1258 7.40741e-05 
r175 1612 1257 0.0279474 
r176 1257 1258 1.5 
r177 1560 1256 0.000233918 
r178 1644 1256 2 
r179 1568 1254 0.000114123 
r180 1643 1254 1.2 
r181 1564 1252 0.000100503 
r182 1645 1252 1 
r183 1578 1250 0.000299625 
r184 1644 1250 3 
r185 1591 1247 6 
r186 1589 1244 0.0557895 
r187 1244 1280 3 
r188 1297 1243 0.585 
r189 1548 1243 6 
r190 1548 1240 0.6875 
r191 1240 1492 6 
r192 1293 1239 0.228421 
r193 1727 1239 0.5 
r194 1545 1236 0.787143 
r195 1236 1281 6 
r196 1235 1313 0.0561431 
r197 1543 1235 6 
r198 1233 1291 0.0484211 
r199 1726 1233 2 
r200 1231 1306 0.219259 
r201 1230 1288 0.0845 
r202 1219 1280 0.8885 
r203 1218 1714 0.526 
r204 1218 1231 0.0447005 
r205 1217 1714 2.122 
r206 1217 1230 0.0446983 
r207 1204 1207 0.81913 
r208 1203 1207 0.309565 
r209 1201 1203 0.0446983 
r210 1201 1202 2.21913 
r211 1199 1202 0.0447246 
r212 1199 1313 4.4 
r213 1194 1247 0.0422277 
r214 1194 1195 1.5875 
r215 1190 1660 2.122 
r216 1190 1219 0.0446983 
r217 1126 1127 0.490516 
r218 1125 1126 0.232864 
r219 1124 1125 0.279437 
r220 1115 1116 0.279231 
r221 1114 1115 0.2665 
r222 1105 1106 0.273962 
r223 1104 1105 0.261472 
r224 1091 1092 0.278131 
r225 1088 1609 0.0526456 
r226 1605 1088 0.0552365 
r227 1636 1088 0.00227273 
r228 1634 1086 3 
r229 1634 1084 0.666667 
r230 1635 1082 1.5 
r231 1637 1080 1.5 
r232 1638 1078 3 
r233 1638 1076 3 
r234 1638 1074 2 
r235 1072 1602 0.0620926 
r236 1598 1072 0.0688218 
r237 1629 1072 0.0025 
r238 1066 1104 3.77358e-05 
r239 1064 1114 3.84615e-05 
r240 1056 1124 0.117559 
r241 1055 1056 0.119812 
r242 1055 1062 0.181784 
r243 1054 1076 0.0101408 
r244 1053 1074 0.122066 
r245 1052 1089 0.0616822 
r246 1051 1052 0.08 
r247 1051 1070 0.274084 
r248 980 982 0.0829907 
r249 980 1127 0.1 
r250 982 977 0.159252 
r251 977 989 0.159252 
r252 977 980 0.0291589 
r253 969 977 0.159252 
r254 966 1080 1.5 
r255 962 966 0.793846 
r256 959 962 0.842637 
r257 959 1082 1.5 
r258 951 955 0.55145 
r259 948 951 0.585344 
r260 940 944 0.55145 
r261 937 940 0.585344 
r262 929 933 0.55145 
r263 926 929 0.585344 
r264 922 1116 1.5 
r265 918 922 0.55145 
r266 915 918 0.585344 
r267 915 1106 1.5 
r268 911 1115 1.5 
r269 907 911 0.55145 
r270 904 907 0.585344 
r271 904 1105 1.5 
r272 900 1114 1.5 
r273 896 900 0.793846 
r274 893 896 0.842637 
r275 893 1104 1.5 
r276 888 1096 0.2 
r277 977 888 0.0391734 
r278 871 1091 0.185047 
r279 1089 871 0.0930841 
r280 869 871 0.2 
r281 869 977 0.0397569 
r282 859 1084 0.231776 
r283 1096 859 0.232523 
r284 1634 859 1 
r285 948 857 1.5 
r286 857 1082 0.261509 
r287 1635 857 1.5 
r288 955 855 1.5 
r289 855 1080 0.266538 
r290 1637 855 1.5 
r291 1638 853 1 
r292 851 1096 0.231028 
r293 1086 851 0.278131 
r294 1634 851 0.6 
r295 937 849 1.5 
r296 849 857 0.273962 
r297 1635 849 1.5 
r298 944 847 1.5 
r299 847 855 0.279231 
r300 1637 847 1.5 
r301 845 1076 0.279437 
r302 1078 845 0.279437 
r303 1638 845 0.6 
r304 843 1086 0.139065 
r305 1092 843 0.683365 
r306 1634 843 2 
r307 926 841 1.5 
r308 841 849 0.273962 
r309 1106 841 0.273962 
r310 1635 841 1.5 
r311 933 839 1.5 
r312 839 847 0.279231 
r313 1116 839 0.279231 
r314 1637 839 1.5 
r315 837 1078 0.232864 
r316 1127 837 0.139343 
r317 1638 837 0.857143 
r318 834 1091 2 
r319 834 1089 0.666667 
r320 834 1070 0.666667 
r321 1624 834 0.0165962 
r322 834 1092 0.666667 
r323 832 1105 1.5 
r324 832 1066 1.5 
r325 832 1629 0.0805639 
r326 834 832 0.0404834 
r327 832 1106 1.5 
r328 830 1115 1.5 
r329 830 1064 1.5 
r330 1623 830 0.0330312 
r331 1629 830 0.0694058 
r332 830 1116 1.5 
r333 828 1125 3 
r334 828 1124 0.666667 
r335 828 1062 0.6 
r336 828 1642 0.0532592 
r337 828 1623 0.0241042 
r338 828 1126 0.666667 
r339 818 853 0.0239252 
r340 818 1053 0.04 
r341 816 853 0.135327 
r342 816 1054 0.04 
r343 811 989 0.73271 
r344 810 969 0.737944 
r345 809 977 0.73271 
r346 808 977 0.737944 
r347 805 809 0.0451326 
r348 805 977 2.504 
r349 804 811 0.0451326 
r350 804 977 2.44889 
r351 801 808 0.045921 
r352 801 977 2.687 
r353 800 810 0.045921 
r354 800 977 2.885 
r355 21 1479 1.36978 
r356 21 1478 1.36978 
r357 17 1711 1.51848 
r358 16 1488 0.0447329 
r359 16 1711 1.51162 
r360 15 1584 0.0737243 
r361 15 17 0.0447329 
r362 1487 7 0.0447329 
r363 7 1711 1.51848 
r364 6 1486 0.0447329 
r365 6 1711 1.51162 
.ends

.subckt PM_PC3D21D%CIN 14 19 45 55 118 151
c0 147 0 7.07074f
c1 137 0 15.7041f
c2 128 0 4.21598f
c3 122 0 0.143541f
c4 120 0 5.08146f
c5 115 0 0.112303f
c6 113 0 0.0723692f
c7 110 0 0.0810017f
c8 103 0 2.04148f
c9 99 0 1.51186f
c10 98 0 0.0379464f
c11 97 0 3.153f
c12 96 0 3.30766f
c13 94 0 0.0895149f
c14 91 0 0.0898897f
c15 88 0 0.0375884f
c16 87 0 0.855486f
c17 86 0 0.0338006f
c18 82 0 1.37568f
c19 79 0 0.0345401f
c20 78 0 0.568273f
c21 74 0 7.74777f
c22 68 0 0.246801f
c23 55 0 0.01128f
c24 45 0 1.16411f
c25 37 0 1.1731f
c26 36 0 1.9986f
c27 28 0 0.0729834f
c28 27 0 1.06541f
c29 26 0 0.350684f
c30 24 0 0.357702f
c31 19 0 6.32264e-19
c32 18 0 0.940805f
c33 14 0 5.39284e-19
c34 13 0 1.11938f
r35 135 137 3.34857 
r36 134 135 0.468571 
r37 132 134 11.5829 
r38 125 147 6 
r39 137 122 6 
r40 120 122 6 
r41 120 125 10.7371 
r42 115 151 0.0207123 
r43 115 150 0.0568712 
r44 113 115 6 
r45 113 118 0.0207123 
r46 112 147 11.4788 
r47 110 111 0.0446512 
r48 103 110 0.0447313 
r49 97 112 0.04509 
r50 97 98 7.86286 
r51 140 96 4.69857 
r52 94 96 6 
r53 150 94 0.285714 
r54 92 98 0.0446983 
r55 92 94 0.0457143 
r56 89 91 0.107847 
r57 89 140 6 
r58 87 91 0.0448046 
r59 87 88 1.56857 
r60 86 88 0.0448488 
r61 85 86 0.103226 
r62 82 132 6 
r63 80 82 2.17429 
r64 78 85 0.0448488 
r65 78 79 1.35143 
r66 128 76 7.37143 
r67 74 76 6 
r68 73 79 0.0446983 
r69 73 74 14.7657 
r70 70 128 6 
r71 68 80 0.0446983 
r72 68 70 0.3 
r73 55 40 1.125 
r74 111 40 6 
r75 37 108 2.29429 
r76 37 135 6 
r77 36 53 4.03143 
r78 108 36 6 
r79 103 33 2.70049 
r80 33 53 6 
r81 45 32 1.105 
r82 99 32 6 
r83 99 29 1.88 
r84 29 134 6 
r85 27 40 0.0125 
r86 27 28 0.0116061 
r87 25 28 0.0306792 
r88 25 26 0.453333 
r89 24 28 0.0306792 
r90 23 24 0.453333 
r91 18 26 0.0448998 
r92 18 19 1.1375 
r93 13 23 0.0448998 
r94 13 14 1.1375 
.ends

.subckt PM_PC3D21D%PAD 21 50 91 120 161 190 247 271 295 319 349 355 380 488 507
+ 514
c0 522 0 26.8802f
c1 515 0 84.0152f
c2 514 0 64.3341f
c3 511 0 159.215f
c4 506 0 1.02561f
c5 499 0 9.97339f
c6 494 0 12.958f
c7 485 0 0.118304f
c8 482 0 205.259f
c9 468 0 15.3329f
c10 450 0 3.86483f
c11 381 0 128.439f
c12 380 0 1.04909f
c13 355 0 13.2018f
c14 349 0 13.1716f
c15 319 0 13.1699f
c16 295 0 13.1832f
c17 271 0 13.4186f
c18 247 0 13.1699f
c19 212 0 7.52869f
c20 190 0 2.9853f
c21 173 0 6.78371f
c22 161 0 2.9848f
c23 144 0 6.78371f
c24 120 0 2.9853f
c25 103 0 6.78371f
c26 91 0 2.9853f
c27 74 0 6.78371f
c28 50 0 2.98608f
c29 33 0 6.78371f
c30 21 0 2.9853f
c31 4 0 6.78371f
r32 522 523 0.118407 
r33 521 522 0.118407 
r34 520 521 0.056883 
r35 519 520 0.061524 
r36 518 519 0.118407 
r37 517 518 0.0830354 
r38 516 517 0.0353716 
r39 514 515 0.0124825 
r40 512 514 0.000593149 
r41 511 512 0.0669731 
r42 506 507 0.00916 
r43 499 517 0.0545455 
r44 494 520 0.015 
r45 485 488 0.00916 
r46 485 506 2 
r47 481 494 0.0264274 
r48 481 482 0.147774 
r49 475 476 0.00752787 
r50 474 475 0.021023 
r51 472 474 0.000537705 
r52 472 511 0.00162999 
r53 470 472 0.000537705 
r54 468 470 0.0285508 
r55 459 506 0.1388 
r56 458 459 0.132996 
r57 457 458 0.0171733 
r58 456 457 0.0171733 
r59 455 456 0.0171733 
r60 454 455 0.0171733 
r61 453 454 0.0171733 
r62 450 499 0.202116 
r63 482 383 0.0288462 
r64 381 453 0.00818451 
r65 381 383 0.00646891 
r66 450 380 0.0147368 
r67 344 349 0.0072093 
r68 453 344 0.0566038 
r69 342 355 0.0072093 
r70 458 342 0.0566038 
r71 315 319 0.0072093 
r72 457 315 0.0566038 
r73 291 295 0.0072093 
r74 456 291 0.0566038 