* File: pt3o03.dist.sp.pex
* Created: Sun Jul  4 13:05:17 2010
* Program "Calibre xRC"
* Version "v2008.4_19.14"
* Nominal Temperature: 27C
* Circuit Temperature: 27C
* 
.subckt PM_PT3O03%noxref_2 8 18
c0 20 0 4.6446f
c1 18 0 1.04039f
c2 8 0 5.82873f
r3 18 20 0.131053 
r4 20 8 0.144632 
.ends

.subckt PM_PT3O03%PAD 21 50 91 120 161 190 254 278 302 326 356 362 431 470 494
+ 501
c0 509 0 30.1281f
c1 502 0 82.9887f
c2 501 0 64.3341f
c3 498 0 159.215f
c4 493 0 0.992829f
c5 488 0 12.0873f
c6 476 0 13.9725f
c7 467 0 0.118304f
c8 465 0 206.691f
c9 450 0 15.3329f
c10 439 0 46.9405f
c11 434 0 65.4578f
c12 432 0 15.8703f
c13 431 0 1.01557f
c14 430 0 0.219119f
c15 362 0 13.1526f
c16 356 0 13.106f
c17 326 0 13.1036f
c18 302 0 13.117f
c19 278 0 13.3644f
c20 254 0 13.1036f
c21 212 0 7.52869f
c22 190 0 2.99446f
c23 173 0 6.78371f
c24 161 0 2.98669f
c25 144 0 6.7848f
c26 120 0 2.99446f
c27 103 0 6.78371f
c28 91 0 2.99446f
c29 74 0 6.78371f
c30 50 0 2.99368f
c31 33 0 6.78371f
c32 21 0 2.99381f
c33 4 0 6.78371f
r34 509 510 0.0218877 
r35 508 509 0.0965193 
r36 507 508 0.118407 
r37 506 507 0.056883 
r38 505 506 0.061524 
r39 504 505 0.118407 
r40 503 504 0.118407 
r41 501 502 0.0124825 
r42 499 501 0.000593149 
r43 498 499 0.0669731 
r44 493 494 0.00916 
r45 488 509 0.06 
r46 476 506 0.015 
r47 467 470 0.00916 
r48 467 493 2 
r49 465 476 0.0264274 
r50 463 465 0.147454 
r51 463 464 0.0288462 
r52 457 458 0.00752787 
r53 456 457 0.021023 
r54 454 456 0.000537705 
r55 454 498 0.00162999 
r56 452 454 0.000537705 
r57 450 452 0.0285508 
r58 441 493 0.1388 
r59 440 441 0.132996 
r60 439 440 0.0171733 
r61 436 437 0.0171733 
r62 435 436 0.0171733 
r63 434 435 0.0171733 
r64 433 439 0.0142401 
r65 433 437 0.00293318 
r66 432 464 0.00646891 
r67 432 434 0.00818451 
r68 430 488 0.217989 
r69 430 431 0.0147368 
r70 351 356 0.0072093 
r71 434 351 0.0566038 
r72 349 362 0.0072093 
r73 440 349 0.0566038 
r74 322 326 0.0072093 
r75 439 322 0.0566038 
r76 298 302 0.0072093 
r77 437 298 0.0566038 
r78 274 278 0.0072093 
r79 436 274 0.0566038 
r80 250 254 0.0072093 
r81 435 250 0.0566038 
r82 230 233 0.0022831 
r83 458 230 0.0375475 
r84 230 499 0.00547945 
r85 456 229 0.00210084 
r86 227 229 0.000537705 
r87 452 227 0.00210084 
r88 229 218 0.0105115 
r89 457 218 0.00712251 
r90 214 233 0.0187738 
r91 218 214 0.00376393 
r92 458 214 0.00712251 
r93 212 227 0.0142754 
r94 450 212 0.00356125 
r95 502 197 0.345778 
r96 196 508 0.0220132 
r97 196 197 0.319822 
r98 190 177 0.00249413 
r99 197 177 0.0425532 
r100 173 190 0.00249413 
r101 197 173 0.0425532 
r102 502 168 0.345778 
r103 167 510 0.0220132 
r104 167 168 0.319822 
r105 161 148 0.00249413 
r106 168 148 0.0425532 
r107 144 161 0.00249413 
r108 168 144 0.0425532 
r109 502 127 0.345778 
r110 126 505 0.0220132 
r111 126 127 0.319822 
r112 120 107 0.00249413 
r113 127 107 0.0425532 
r114 103 120 0.00249413 
r115 127 103 0.0425532 
r116 502 98 0.345778 
r117 97 507 0.0220132 
r118 97 98 0.319822 
r119 91 78 0.00249413 
r120 98 78 0.0425532 
r121 74 91 0.00249413 
r122 98 74 0.0425532 
r123 502 57 0.345778 
r124 56 503 0.0220132 
r125 56 57 0.319822 
r126 50 37 0.00249413 
r127 57 37 0.0425532 
r128 33 50 0.00249413 
r129 57 33 0.0425532 
r130 502 28 0.345778 
r131 27 504 0.0220132 
r132 27 28 0.319822 
r133 21 8 0.00249413 
r134 28 8 0.0425532 
r135 4 21 0.00249413 
r136 28 4 0.0425532 
.ends

.subckt PM_PT3O03%VSS 852 915 938 963 976 987 989 994
c0 994 0 90.4186f
c1 987 0 50.1056f
c2 975 0 65.1962f
c3 973 0 2.67751f
c4 963 0 0.00260083f
c5 960 0 1.06717f
c6 934 0 1.86191f
c7 927 0 14.811f
c8 912 0 1.46137f
c9 877 0 0.195915f
c10 873 0 24.8196f
c11 862 0 0.0765735f
c12 861 0 0.0432851f
c13 860 0 1.91829f
c14 859 0 0.0232103f
c15 852 0 1.97589f
c16 847 0 4.30303f
c17 846 0 2.71152f
c18 842 0 0.146915f
c19 841 0 0.57718f
c20 839 0 19.7803f
c21 838 0 4.25883f
c22 837 0 0.0389222f
c23 836 0 1.82371f
c24 830 0 8.7286f
c25 827 0 0.196543f
c26 826 0 0.090741f
c27 825 0 1.67659f
c28 697 0 1.93193f
c29 680 0 1.329f
c30 678 0 0.203069f
c31 676 0 0.270234f
c32 673 0 25.6675f
c33 670 0 2.39319f
c34 655 0 2.37344f
c35 649 0 2.03669f
c36 645 0 0.135881f
c37 644 0 2.46784f
c38 643 0 0.117466f
c39 642 0 2.24284f
c40 639 0 6.90681f
c41 595 0 0.162892f
c42 593 0 0.72248f
c43 591 0 0.204021f
c44 566 0 2.94574f
c45 552 0 3.0753f
c46 550 0 0.031054f
c47 547 0 3.11758f
c48 546 0 3.12821f
c49 545 0 0.161087f
c50 530 0 4.23413f
c51 527 0 3.01934f
r52 989 992 0.000703354 
r53 985 987 0.00318245 
r54 984 985 0.00119641 
r55 983 984 0.110269 
r56 982 983 0.0486142 
r57 981 982 0.153061 
r58 980 981 0.107717 
r59 979 980 0.09001 
r60 976 979 0.00438684 
r61 973 985 0.461538 
r62 960 963 1.28857 
r63 960 982 1.5 
r64 957 981 0.047619 
r65 941 984 0.428571 
r66 938 941 0.189 
r67 936 994 0.000702051 
r68 992 936 0.0832563 
r69 934 936 0.131579 
r70 934 938 0.013 
r71 931 932 0.572589 
r72 930 931 1.12122 
r73 927 930 0.628223 
r74 927 983 0.3 
r75 923 924 0.8265 
r76 918 979 0.428571 
r77 915 918 0.189 
r78 912 915 0.013 
r79 912 992 0.131579 
r80 860 957 2.441 
r81 860 861 0.0338756 
r82 858 957 0.052 
r83 858 859 0.0175768 
r84 855 862 0.0338756 
r85 855 856 0.074 
r86 854 861 0.0338756 
r87 852 900 2.59036 
r88 965 852 1.07807 
r89 851 862 0.00880368 
r90 851 852 0.882 
r91 850 861 0.00880368 
r92 850 852 1.062 
r93 848 975 0.0175768 
r94 848 852 0.6945 
r95 847 862 0.0338756 
r96 847 852 1.7985 
r97 846 975 0.0270064 
r98 845 859 0.0270064 
r99 845 846 4.09263 
r100 842 841 0.0577061 
r101 838 975 0.0175768 
r102 836 859 0.0175768 
r103 836 837 2.364 
r104 835 837 0.0446983 
r105 833 973 1.518 
r106 832 973 0.426 
r107 830 900 1.08482 
r108 827 965 1.06072 
r109 826 839 0.087 
r110 825 826 0.0446983 
r111 825 835 1.944 
r112 697 893 3 
r113 965 695 1 
r114 838 688 1.0165 
r115 839 688 1.2605 
r116 688 877 3 
r117 856 687 3 
r118 893 680 0.231111 
r119 931 680 1.5 
r120 687 678 0.000888889 
r121 930 678 3 
r122 676 900 3 
r123 932 676 3 
r124 673 923 0.3056 
r125 673 980 0.125 
r126 672 877 0.0005 
r127 923 672 3 
r128 670 695 0.00750563 
r129 699 670 0.056042 
r130 924 670 0.24 
r131 842 668 0.078239 
r132 873 668 1 
r133 666 873 0.9634 
r134 666 699 0.020015 
r135 655 856 1.291 
r136 833 655 0.0446983 
r137 654 697 0.835122 
r138 653 697 0.56878 
r139 648 649 1.37048 
r140 645 654 0.0448242 
r141 645 646 0.678222 
r142 644 649 0.0447675 
r143 644 646 0.650667 
r144 643 653 0.0446983 
r145 642 648 0.0447067 
r146 642 643 1.45854 
r147 639 854 1.365 
r148 639 832 0.0446983 
r149 594 595 0.147619 
r150 590 591 0.14988 
r151 830 590 0.0380723 
r152 587 589 0.143333 
r153 827 586 0.0385542 
r154 584 586 0.14506 
r155 852 583 0.159 
r156 566 852 0.159 
r157 565 595 0.02 
r158 565 583 1.247 
r159 564 591 0.02 
r160 564 566 1.243 
r161 852 563 0.192 
r162 561 852 0.192 
r163 560 561 0.342 
r164 852 560 0.192 
r165 558 852 0.192 
r166 557 558 0.342 
r167 852 557 0.192 
r168 555 852 0.192 
r169 554 555 0.342 
r170 852 554 0.192 
r171 552 852 0.192 
r172 551 594 0.02 
r173 551 563 1.214 
r174 550 593 0.04 
r175 550 552 0.243 
r176 548 590 0.02 
r177 548 593 0.938734 
r178 668 547 0.102486 
r179 546 594 0.0380952 
r180 546 547 4.80524 
r181 545 841 0.555238 
r182 545 589 0.0380952 
r183 852 541 0.159 
r184 539 852 0.159 
r185 538 539 0.408 
r186 852 538 0.159 
r187 536 852 0.159 
r188 535 536 0.408 
r189 852 535 0.159 
r190 533 852 0.159 
r191 532 533 0.408 
r192 852 532 0.159 
r193 530 852 0.159 
r194 529 589 0.02 
r195 529 541 1.247 
r196 528 586 0.02 
r197 528 530 1.243 
r198 527 587 0.02 
r199 526 584 0.02 
r200 526 527 4.69271 
.ends

.subckt PM_PT3O03%ngate 68 73 152 163 168 177 211 213 230 262 268
c0 321 0 0.457904f
c1 313 0 16.4511f
c2 306 0 0.534742f
c3 305 0 0.259795f
c4 304 0 0.727254f
c5 300 0 1.50926f
c6 299 0 0.772635f
c7 296 0 0.0789674f
c8 295 0 1.50695f
c9 293 0 0.166186f
c10 291 0 5.55853f
c11 285 0 2.2184f
c12 280 0 3.0008f
c13 270 0 0.606541f
c14 269 0 0.169104f
c15 268 0 3.04886f
c16 262 0 3.04886f
c17 230 0 1.63228f
c18 220 0 0.431396f
c19 213 0 0.595354f
c20 211 0 0.830327f
c21 208 0 0.148809f
c22 205 0 0.145585f
c23 192 0 1.77581f
c24 186 0 3.12997f
c25 184 0 0.0286327f
c26 181 0 0.0509039f
c27 177 0 0.953092f
c28 175 0 0.0801312f
c29 174 0 0.407641f
c30 172 0 0.456238f
c31 168 0 1.3223f
c32 163 0 1.34573f
c33 161 0 0.0513034f
c34 160 0 0.363919f
c35 159 0 0.755108f
c36 157 0 0.0503038f
c37 156 0 0.334574f
c38 152 0 2.15118f
c39 104 0 0.46126f
c40 83 0 0.968085f
c41 73 0 3.04886f
c42 72 0 0.166915f
c43 68 0 3.04886f
c44 67 0 0.168729f
r45 312 313 3.44 
r46 309 312 1.88533 
r47 302 304 0.0690479 
r48 302 325 1.5 
r49 301 305 0.105812 
r50 300 304 0.0795789 
r51 300 301 1.457 
r52 299 305 0.0229232 
r53 298 321 0.00536585 
r54 318 298 0.0502439 
r55 297 299 0.0635597 
r56 297 298 1.5 
r57 295 305 0.105812 
r58 295 296 1.736 
r59 309 293 6 
r60 291 293 6 
r61 290 296 0.0446983 
r62 290 291 6.53 
r63 306 277 0.00142683 
r64 274 306 0.0277856 
r65 270 306 5.05882 
r66 269 306 5.05882 
r67 264 270 3.88985 
r68 264 268 183.96 
r69 259 269 3.88985 
r70 259 262 183.96 
r71 208 213 60 
r72 208 227 3.77986 
r73 205 211 85 
r74 205 220 3.53757 
r75 230 196 1.6725 
r76 285 196 6 
r77 193 288 2.28 
r78 285 193 1.3875 
r79 193 313 6 
r80 288 192 6 
r81 220 190 0.3325 
r82 280 190 6 
r83 187 283 2.2825 
r84 280 187 1.32 
r85 187 312 6 
r86 186 227 3.7825 
r87 283 186 6 
r88 183 192 3.105 
r89 183 184 0.0329896 
r90 182 230 1.3075 
r91 176 184 0.0329896 
r92 176 177 1.2375 
r93 174 184 0.00955498 
r94 174 175 0.526452 
r95 173 181 0.0338756 
r96 172 182 0.0446983 
r97 172 173 0.51 
r98 167 175 0.044713 
r99 167 168 1.2375 
r100 162 181 0.00880368 
r101 162 163 1.3075 
r102 160 181 0.0338756 
r103 160 161 0.4675 
r104 159 161 0.0446983 
r105 158 159 1.2275 
r106 156 158 0.0450043 
r107 156 157 0.441081 
r108 151 157 0.0450043 
r109 151 152 2.075 
r110 325 104 0.00292683 
r111 104 277 3 
r112 78 83 5.05882 
r113 77 83 5.05882 
r114 72 78 3.88985 
r115 72 73 183.96 
r116 67 77 3.88985 
r117 67 68 183.96 
r118 83 45 0.00133393 
r119 318 45 3 
r120 20 83 0.0278113 
r121 321 20 3 
r122 8 325 0.0526829 
r123 8 274 3 
.ends

.subckt PM_PT3O03%U29_U76_r1 71 77 90
c0 139 0 0.683625f
c1 133 0 0.455002f
c2 130 0 0.14869f
c3 128 0 6.89229f
c4 126 0 0.539069f
c5 124 0 0.187072f
c6 123 0 9.35277f
c7 122 0 0.673484f
c8 121 0 0.296234f
c9 118 0 16.2985f
c10 116 0 0.119865f
c11 113 0 0.183966f
c12 105 0 1.73974f
c13 103 0 0.861079f
c14 94 0 0.060459f
c15 93 0 0.112142f
c16 89 0 0.290636f
c17 83 0 0.304635f
c18 79 0 0.15872f
c19 78 0 0.553357f
c20 77 0 3.0966f
c21 71 0 3.10207f
c22 37 0 0.241164f
r23 133 135 0.0644648 
r24 133 153 3 
r25 128 130 6 
r26 135 128 4.02941 
r27 126 133 0.0249612 
r28 125 126 0.0448062 
r29 123 125 0.087259 
r30 123 124 10.57 
r31 122 124 0.0662682 
r32 149 121 0.0521951 
r33 120 122 0.122737 
r34 120 121 3 
r35 143 118 1.47429 
r36 116 118 6 
r37 115 116 0.115942 
r38 114 130 0.039775 
r39 113 115 0.0446983 
r40 113 114 0.186667 
r41 108 143 6 
r42 103 105 6 
r43 103 108 1.65548 
r44 102 105 3.24387 
r45 97 139 0.00142683 
r46 93 102 0.0446983 
r47 93 94 0.130323 
r48 89 94 0.0664522 
r49 89 90 0.0466667 
r50 79 139 1.85294 
r51 78 83 1.85294 
r52 73 79 3.88985 
r53 73 77 183.96 
r54 68 78 3.88985 
r55 68 71 183.96 
r56 153 37 0.00341463 
r57 37 97 3 
r58 83 13 0.00142683 
r59 149 13 3 
.ends

.subckt PM_PT3O03%U30_ngate2 68 73 139 149 154 161 218 224
c0 276 0 0.44895f
c1 271 0 0.468489f
c2 263 0 0.53599f
c3 262 0 0.243881f
c4 261 0 0.974586f
c5 257 0 1.49586f
c6 256 0 0.997659f
c7 253 0 0.0695221f
c8 252 0 4.76029f
c9 248 0 4.92446f
c10 237 0 0.140514f
c11 228 0 0.15141f
c12 226 0 0.60893f
c13 225 0 0.17014f
c14 224 0 3.04886f
c15 218 0 3.04886f
c16 193 0 0.310972f
c17 188 0 12.4619f
c18 178 0 0.63588f
c19 177 0 2.93441f
c20 172 0 3.10303f
c21 171 0 0.13299f
c22 169 0 0.0326226f
c23 166 0 0.0822206f
c24 165 0 0.150794f
c25 161 0 0.423154f
c26 159 0 0.0267964f
c27 158 0 0.0281896f
c28 154 0 0.476872f
c29 149 0 1.52466f
c30 147 0 0.0713867f
c31 146 0 0.119805f
c32 144 0 0.44227f
c33 143 0 3.58053f
c34 139 0 1.83923f
c35 104 0 0.451234f
c36 83 0 0.969205f
c37 73 0 3.04886f
c38 72 0 0.169719f
c39 68 0 3.04886f
c40 67 0 0.16964f
r41 266 271 6 
r42 259 261 0.113741 
r43 259 280 1.5 
r44 258 262 0.100445 
r45 257 261 0.0772539 
r46 257 258 1.482 
r47 256 262 0.0216711 
r48 255 276 0.000487805 
r49 273 255 0.055122 
r50 254 256 0.109214 
r51 254 255 1.5 
r52 252 262 0.100445 
r53 252 253 5.236 
r54 250 271 0.475789 
r55 248 250 6 
r56 247 253 0.0446983 
r57 247 248 5.25 
r58 239 242 0.58625 
r59 237 239 0.0448391 
r60 237 238 0.0717241 
r61 263 234 0.00142683 
r62 231 263 0.0277856 
r63 228 266 0.1125 
r64 226 263 5.05882 
r65 225 263 5.05882 
r66 220 226 3.88985 
r67 220 224 183.96 
r68 215 225 3.88985 
r69 215 218 183.96 
r70 192 193 0.245 
r71 228 192 0.04 
r72 178 245 0.742857 
r73 178 188 6 
r74 245 177 6 
r75 175 188 1.12267 
r76 242 175 6 
r77 172 242 2.98125 
r78 172 193 6 
r79 238 171 6 
r80 167 177 4.21429 
r81 166 171 0.0468966 
r82 169 161 0.545714 
r83 159 169 0.0464898 
r84 158 167 0.0464898 
r85 158 159 0.0430769 
r86 153 154 0.79 
r87 148 149 1.745 
r88 146 148 0.0451268 
r89 146 147 0.124211 
r90 145 165 0.0321994 
r91 144 153 0.0447517 
r92 144 145 0.647059 
r93 143 147 0.0451268 
r94 142 166 0.0448391 
r95 142 143 5.505 
r96 138 192 0.02 
r97 138 139 2.2575 
r98 137 165 0.010241 
r99 137 139 1.98 
r100 280 104 0.00195122 
r101 104 234 3 
r102 78 83 5.05882 
r103 77 83 5.05882 
r104 72 78 3.88985 
r105 72 73 183.96 
r106 67 77 3.88985 
r107 67 68 183.96 
r108 83 45 0.00133393 
r109 273 45 3 
r110 20 83 0.0278113 
r111 276 20 3 
r112 8 280 0.0536585 
r113 8 231 3 
.ends

.subckt PM_PT3O03%U29_U37_r2 44 47 55
c0 128 0 0.881496f
c1 121 0 1.70979f
c2 114 0 0.911326f
c3 112 0 16.0768f
c4 101 0 1.19708f
c5 97 0 15.7698f
c6 90 0 0.294032f
c7 84 0 7.50192f
c8 78 0 0.256042f
c9 76 0 5.41761f
c10 70 0 0.404836f
c11 68 0 0.926139f
c12 65 0 1.95504f
c13 61 0 0.365209f
c14 55 0 0.324998f
c15 54 0 0.0658877f
c16 39 0 5.08533f
c17 38 0 0.433603f
c18 35 0 0.337763f
c19 32 0 0.309862f
c20 9 0 5.00633f
c21 7 0 0.130875f
c22 5 0 0.125774f
r23 114 116 0.189756 
r24 109 112 0.904 
r25 109 128 6 
r26 121 105 0.600976 
r27 103 105 6 
r28 101 103 0.158049 
r29 128 99 1.064 
r30 97 99 6 
r31 94 97 13.8293 
r32 89 90 3 
r33 84 99 6 
r34 84 89 4.22645 
r35 81 121 6 
r36 94 78 6 
r37 76 78 6 
r38 76 81 5.18 
r39 73 112 6 
r40 68 70 6 
r41 68 73 1.41161 
r42 65 116 6 
r43 63 65 0.683902 
r44 62 90 0.022693 
r45 61 63 0.045829 
r46 61 62 0.150968 
r47 58 70 0.643871 
r48 54 58 0.055223 
r49 54 55 0.109189 
r50 39 44 394.95 
r51 38 114 2.85294 
r52 38 39 1.5 
r53 116 35 0.194146 
r54 103 32 0.218537 
r55 10 35 2.04706 
r56 9 47 394.95 
r57 9 10 4.2601 
r58 8 32 2.04706 
r59 7 47 394.95 
r60 7 8 4.2601 
r61 6 101 2.07059 
r62 5 44 394.95 
r63 5 6 4.2601 
.ends

.subckt PM_PT3O03%pgate 18 37 68 87 118 137 168 187 259 261 280 282 289 296 305
+ 335
c0 459 0 15.8015f
c1 438 0 0.391813f
c2 435 0 0.309607f
c3 433 0 0.309607f
c4 432 0 0.309607f
c5 430 0 0.309607f
c6 429 0 0.293407f
c7 427 0 0.309998f
c8 426 0 0.309607f
c9 423 0 6.01501f
c10 419 0 0.491735f
c11 410 0 10.4355f
c12 405 0 4.50626f
c13 387 0 6.58903f
c14 381 0 2.21495f
c15 365 0 6.21514f
c16 363 0 0.0605147f
c17 362 0 0.321014f
c18 335 0 0.00463128f
c19 333 0 2.77737f
c20 324 0 0.195459f
c21 322 0 15.7085f
c22 318 0 0.028277f
c23 316 0 0.0228642f
c24 314 0 0.028277f
c25 305 0 1.38868f
c26 302 0 0.346041f
c27 300 0 0.358918f
c28 296 0 1.12623f
c29 293 0 0.186859f
c30 289 0 1.96513f
c31 287 0 0.0478882f
c32 286 0 0.289619f
c33 282 0 2.76917f
c34 280 0 1.44198f
c35 257 0 5.10449f
c36 253 0 0.419276f
c37 248 0 4.81603f
c38 247 0 0.3815f
c39 235 0 0.370539f
c40 184 0 0.32269f
c41 172 0 4.92236f
c42 170 0 0.105999f
c43 165 0 0.32269f
c44 153 0 4.92236f
c45 151 0 0.105999f
c46 134 0 0.32269f
c47 122 0 4.92236f
c48 120 0 0.105999f
c49 115 0 0.32269f
c50 103 0 4.92465f
c51 101 0 0.106492f
c52 84 0 0.306609f
c53 72 0 4.89076f
c54 70 0 0.105999f
c55 65 0 0.323081f
c56 53 0 4.91695f
c57 51 0 0.105999f
c58 34 0 0.32269f
c59 22 0 4.92236f
c60 20 0 0.105999f
c61 15 0 6.2635f
c62 3 0 4.99891f
c63 1 0 0.129756f
r64 435 436 0.323902 
r65 432 433 0.327902 
r66 429 430 0.327902 
r67 426 427 0.327902 
r68 419 459 0.342857 
r69 417 419 6 
r70 408 410 6 
r71 405 408 5.68571 
r72 405 459 6 
r73 403 410 9.66286 
r74 400 454 6 
r75 397 400 0.708293 
r76 397 451 6 
r77 394 397 0.708293 
r78 394 448 6 
r79 391 394 0.708293 
r80 391 445 6 
r81 387 391 0.708293 
r82 387 442 6 
r83 381 383 2.3 
r84 380 438 0.219512 
r85 436 380 0.164878 
r86 378 380 6 
r87 377 435 0.219512 
r88 433 377 0.160878 
r89 375 377 6 
r90 375 378 0.708293 
r91 374 432 0.219512 
r92 430 374 0.160878 
r93 372 374 6 
r94 372 375 0.708293 
r95 371 429 0.219512 
r96 427 371 0.160878 
r97 369 371 6 
r98 369 372 0.708293 
r99 367 426 0.219512 
r100 423 367 0.160878 
r101 365 367 6 
r102 365 369 0.708293 
r103 364 378 0.493659 
r104 363 403 0.0447469 
r105 362 364 0.050007 
r106 362 363 0.364944 
r107 333 335 4.4225 
r108 381 324 6 
r109 417 322 4.52267 
r110 383 322 6 
r111 383 319 1.4 
r112 319 333 6 
r113 317 335 1.3875 
r114 317 318 0.00880368 
r115 315 324 0.185 
r116 315 316 0.0373215 
r117 304 305 1.3625 
r118 303 318 0.0338756 
r119 302 309 0.0446983 
r120 302 303 0.51 
r121 301 316 0.00604629 
r122 300 304 0.0448998 
r123 300 301 0.453333 
r124 295 316 0.0373215 
r125 295 296 1.3625 
r126 294 314 0.0338756 
r127 293 318 0.0338756 
r128 293 294 0.3825 
r129 288 314 0.00880368 
r130 288 289 2.485 
r131 286 314 0.0338756 
r132 286 287 0.51 
r133 281 287 0.0446983 
r134 281 282 2.485 
r135 309 280 1.3875 
r136 257 261 394.95 
r137 256 257 1.5 
r138 454 253 0.219512 
r139 253 256 2.81176 
r140 250 454 0.16439 
r141 248 259 394.95 
r142 247 250 2.74706 
r143 247 248 1.5 
r144 245 261 394.95 
r145 438 244 2.78235 
r146 244 245 1.5 
r147 236 259 394.95 
r148 235 436 2.74706 
r149 235 236 1.5 
r150 184 250 0.32439 
r151 451 184 0.219512 
r152 173 184 2.07647 
r153 172 187 394.95 
r154 172 173 4.2601 
r155 171 435 2.07647 
r156 170 187 394.95 
r157 170 171 4.2601 
r158 165 451 0.16039 
r159 154 165 2.07647 
r160 153 168 394.95 
r161 153 154 4.2601 
r162 152 433 2.07647 
r163 151 168 394.95 
r164 151 152 4.2601 
r165 134 165 0.32839 
r166 448 134 0.219512 
r167 123 134 2.07647 
r168 122 137 394.95 
r169 122 123 4.2601 
r170 121 432 2.07647 
r171 120 137 394.95 
r172 120 121 4.2601 
r173 115 448 0.16039 
r174 104 115 2.07647 
r175 103 118 394.95 
r176 103 104 4.2601 
r177 102 430 2.07647 
r178 101 118 394.95 
r179 101 102 4.2601 
r180 84 115 0.32839 
r181 445 84 0.219512 
r182 73 84 2.07647 
r183 72 87 394.95 
r184 72 73 4.2601 
r185 71 429 2.07647 
r186 70 87 394.95 
r187 70 71 4.2601 
r188 65 445 0.16039 
r189 54 65 2.07647 
r190 53 68 394.95 
r191 53 54 4.2601 
r192 52 427 2.07647 
r193 51 68 394.95 
r194 51 52 4.2601 
r195 34 65 0.32839 
r196 442 34 0.219512 
r197 23 34 2.07647 
r198 22 37 394.95 
r199 22 23 4.2601 
r200 21 426 2.07647 
r201 20 37 394.95 
r202 20 21 4.2601 
r203 15 442 0.16039 
r204 4 15 2.07647 
r205 3 18 394.95 
r206 3 4 4.2601 
r207 2 423 2.07647 
r208 1 18 394.95 
r209 1 2 4.2601 
.ends

.subckt PM_PT3O03%VDDO 880 887 894 901 908 915 922 935 1005 1008 1013 1070 1259
+ 1316 1320 1323 1327 1334 1341 1362 1391 1404 1412 1419 1425 1431 1437 1479 1490
+ 1519 1524
c0 1524 0 20.5433f
c1 1516 0 4.71352f
c2 1507 0 6.80765f
c3 1498 0 8.85211f
c4 1493 0 9.02439f
c5 1490 0 45.2341f
c6 1476 0 2.98997f
c7 1437 0 2.71172f
c8 1431 0 2.15668f
c9 1425 0 0.805467f
c10 1419 0 1.42934f
c11 1416 0 3.06423f
c12 1401 0 0.505102f
c13 1394 0 30.5641f
c14 1393 0 1.9359f
c15 1391 0 62.8544f
c16 1389 0 2.02603f
c17 1340 0 50.611f
c18 1331 0 0.65747f
c19 1327 0 2.99406f
c20 1320 0 2.50223f
c21 1307 0 1.98367f
c22 1305 0 0.27065f
c23 1295 0 0.149549f
c24 1293 0 0.392928f
c25 1287 0 0.104433f
c26 1277 0 0.193678f
c27 1273 0 0.519085f
c28 1268 0 1.9442f
c29 1263 0 0.0595024f
c30 1262 0 0.10859f
c31 1258 0 0.290708f
c32 1226 0 10.2406f
c33 1225 0 9.76182f
c34 1081 0 0.33717f
c35 1064 0 11.5757f
c36 1042 0 0.210309f
c37 1038 0 2.09653f
c38 1034 0 2.10965f
c39 1028 0 7.62023f
c40 1027 0 4.59836f
c41 1025 0 0.0193183f
c42 1024 0 4.36755f
c43 1019 0 0.0933881f
c44 1013 0 4.09112e-19
c45 1012 0 2.58375f
c46 1008 0 1.44145f
c47 1005 0 0.479994f
c48 1003 0 0.0482677f
c49 1002 0 0.142362f
c50 935 0 8.12408f
c51 927 0 7.19256f
c52 922 0 0.0208826f
c53 915 0 0.0106455f
c54 908 0 0.0106455f
c55 901 0 0.0106455f
c56 894 0 0.0106455f
c57 887 0 0.0234349f
c58 880 0 0.00830585f
c59 847 0 11.8231f
c60 845 0 19.2375f
c61 843 0 19.4159f
c62 841 0 19.4447f
c63 839 0 19.4159f
c64 837 0 19.4159f
c65 835 0 11.7227f
c66 809 0 0.198114f
c67 808 0 6.63391f
c68 805 0 0.115779f
c69 804 0 6.17652f
c70 21 0 0.152029f
c71 20 0 6.70411f
c72 11 0 0.152029f
c73 10 0 6.75738f
r74 1519 1522 0.00394881 
r75 1516 1517 0.951776 
r76 1509 1510 0.279231 
r77 1507 1509 0.266538 
r78 1500 1501 0.273962 
r79 1498 1500 0.261509 
r80 1487 1488 0.413943 
r81 1486 1487 0.0205664 
r82 1485 1486 0.0298039 
r83 1484 1485 0.0354684 
r84 1483 1484 0.0570806 
r85 1478 1490 0.00304139 
r86 1488 1478 0.00174292 
r87 1476 1478 0.461538 
r88 1440 1487 0.6 
r89 1437 1440 1.6625 
r90 1434 1486 0.6 
r91 1431 1434 1.6625 
r92 1428 1485 0.75 
r93 1425 1428 0.1575 
r94 1422 1484 0.75 
r95 1419 1422 1.1525 
r96 1418 1483 0.00174292 
r97 1479 1418 0.00305011 
r98 1416 1418 0.461538 
r99 1412 1516 0.2 
r100 1408 1524 0.0039415 
r101 1522 1408 0.467422 
r102 1406 1408 0.5 
r103 1404 1406 0.181 
r104 1401 1404 0.17 
r105 1401 1488 1.5 
r106 1398 1399 0.5433 
r107 1397 1398 0.2287 
r108 1396 1397 0.56298 
r109 1394 1396 0.0036 
r110 1393 1412 0.0528252 
r111 1393 1399 0.099 
r112 1517 1389 0.741308 
r113 1387 1389 0.181818 
r114 1387 1391 0.0136564 
r115 1510 1386 0.279231 
r116 1386 1384 0.279231 
r117 1384 1382 0.279231 
r118 1382 1380 0.266538 
r119 1378 1380 1.5 
r120 1378 1382 1.5 
r121 1378 1384 1.5 
r122 1378 1386 1.5 
r123 1378 1387 0.0314855 
r124 1377 1378 0.0601494 
r125 1501 1376 0.273962 
r126 1376 1374 0.273962 
r127 1374 1372 0.273962 
r128 1372 1370 0.261509 
r129 1368 1370 1.5 
r130 1368 1372 1.5 
r131 1368 1374 1.5 
r132 1368 1376 1.5 
r133 1368 1377 0.0634357 
r134 1495 1367 0.000747664 
r135 1365 1367 0.2 
r136 1365 1368 0.0334274 
r137 1362 1365 0.01361 
r138 1356 1509 1.5 
r139 1356 1507 1.5 
r140 1356 1510 1.5 
r141 1354 1356 0.0694058 
r142 1348 1500 1.5 
r143 1348 1498 1.5 
r144 1348 1354 0.0805639 
r145 1348 1501 1.5 
r146 1344 1493 0.2 
r147 1344 1348 0.0404834 
r148 1341 1344 0.0165962 
r149 1340 1412 0.0245381 
r150 1340 1356 0.0330312 
r151 1337 1522 0.5 
r152 1334 1337 0.181 
r153 1331 1334 0.17 
r154 1331 1483 1.5 
r155 1305 1307 6 
r156 1304 1305 0.565161 
r157 1293 1304 0.0564739 
r158 1289 1302 0.1836 
r159 1470 1289 0.0028 
r160 1287 1289 6 
r161 1265 1307 3.20516 
r162 1262 1265 0.0446983 
r163 1262 1263 0.112258 
r164 1258 1263 0.0664522 
r165 1258 1259 0.0466667 
r166 1226 1302 0.0784 
r167 1225 1470 0.2648 
r168 1224 1470 0.2664 
r169 1223 1470 0.2664 
r170 1079 1081 1 
r171 1076 1295 3 
r172 1073 1076 0.2885 
r173 1073 1277 2 
r174 1070 1073 2.755 
r175 1062 1064 3.90065 
r176 1060 1062 5.58323 
r177 1277 1050 0.000233918 
r178 1398 1050 2 
r179 1287 1048 0.000149533 
r180 1396 1048 6 
r181 1081 1046 0.000100503 
r182 1399 1046 1 
r183 1064 1044 2 
r184 1293 1044 0.0625641 
r185 1397 1044 2 
r186 1042 1302 1.5 
r187 1394 1042 1.5 
r188 1295 1040 0.000299625 
r189 1398 1040 3 
r190 1273 1038 6 
r191 1273 1035 0.742857 
r192 1035 1062 6 
r193 1268 1034 3 
r194 1031 1271 3.25857 
r195 1268 1031 0.562857 
r196 1031 1060 6 
r197 1271 1030 6 
r198 1028 1079 0.217284 
r199 1027 1076 0.0845 
r200 1026 1038 4.30714 
r201 1024 1030 0.464 
r202 1024 1025 0.0149881 
r203 1023 1070 0.203 
r204 1023 1025 0.0149881 
r205 1022 1034 3.38061 
r206 1019 1030 2.513 
r207 1018 1476 0.526 
r208 1018 1028 0.0447005 
r209 1017 1476 2.122 
r210 1017 1027 0.0446983 
r211 1012 1026 0.0448488 
r212 1012 1013 3.6271 
r213 1007 1025 0.0313149 
r214 1007 1008 1.51 
r215 1004 1005 0.21697 
r216 1003 1022 0.0446983 
r217 1002 1004 0.0446983 
r218 1002 1003 0.225455 
r219 992 1416 2.122 
r220 992 1019 0.0446983 
r221 938 935 0.159252 
r222 935 945 0.159252 
r223 927 935 0.159252 
r224 1495 876 0.2 
r225 935 876 0.0391734 
r226 859 935 0.0397569 
r227 849 938 0.0829907 
r228 935 849 0.0291589 
r229 1517 849 0.1 
r230 880 847 0.793846 
r231 1507 847 1.5 
r232 887 845 0.55145 
r233 1509 845 1.5 
r234 894 843 0.55145 
r235 1510 843 1.5 
r236 901 841 0.55145 
r237 1386 841 1.5 
r238 908 839 0.55145 
r239 1384 839 1.5 
r240 915 837 0.55145 
r241 1382 837 1.5 
r242 922 835 0.793846 
r243 1380 835 1.5 
r244 833 880 0.842637 
r245 1498 833 1.5 
r246 831 887 0.585344 
r247 1500 831 1.5 
r248 829 894 0.585344 
r249 1501 829 1.5 
r250 827 901 0.585344 
r251 1376 827 1.5 
r252 825 908 0.585344 
r253 1374 825 1.5 
r254 823 915 0.585344 
r255 1372 823 1.5 
r256 821 922 0.842637 
r257 1370 821 1.5 
r258 816 1495 1.79477 
r259 1493 816 0.000373832 
r260 816 859 0.2 
r261 815 945 0.73271 
r262 814 927 0.737944 
r263 813 935 0.73271 
r264 812 935 0.737944 
r265 809 813 0.0451326 
r266 809 935 2.504 
r267 808 815 0.0451326 
r268 808 935 2.44889 
r269 805 812 0.045921 
r270 805 935 2.687 
r271 804 814 0.045921 
r272 804 935 2.885 
r273 442 1327 0.0526456 
r274 1323 442 0.0552365 
r275 1377 442 0.00227273 
r276 440 1320 0.0620926 
r277 1316 440 0.0688218 
r278 1354 440 0.0025 
r279 1226 21 0.0447329 
r280 21 1470 1.51848 
r281 20 1225 0.0447329 
r282 20 1470 1.51162 
r283 1224 11 0.0447329 
r284 11 1470 1.51848 
r285 10 1223 0.0447329 
r286 10 1470 1.51162 
.ends

.subckt PM_PT3O03%VSSO 173 336 499 566 585 840 844 851 882 889 901 912 914 917
+ 922 928 934 940 949 955 961 970 980 988 991 1041 1044 1050
c0 1050 0 31.674f
c1 1041 0 30.8223f
c2 1033 0 7.92867f
c3 1031 0 6.96132f
c4 1025 0 6.9638f
c5 1020 0 6.96487f
c6 1014 0 6.96613f
c7 1009 0 6.96751f
c8 988 0 0.00204973f
c9 983 0 8.95235f
c10 980 0 0.29997f
c11 961 0 1.3628f
c12 955 0 1.39344f
c13 940 0 1.58864f
c14 934 0 1.44506f
c15 928 0 0.891802f
c16 922 0 1.55599f
c17 917 0 1.69047f
c18 914 0 0.00103364f
c19 912 0 8.25608e-19
c20 910 0 8.96457f
c21 899 0 7.87138f
c22 895 0 1.27875f
c23 885 0 1.66746f
c24 882 0 58.4561f
c25 859 0 5.98888f
c26 847 0 1.19668f
c27 844 0 10.3458f
c28 837 0 0.33645f
c29 836 0 13.4232f
c30 829 0 2.40124f
c31 822 0 0.708327f
c32 821 0 3.25126f
c33 819 0 0.383003f
c34 818 0 0.713156f
c35 817 0 0.295345f
c36 816 0 3.25436f
c37 815 0 0.383249f
c38 785 0 0.123501f
c39 784 0 8.87989f
c40 754 0 0.264591f
c41 750 0 7.03694f
c42 747 0 0.146306f
c43 587 0 0.509108f
c44 585 0 0.378532f
c45 584 0 0.141815f
c46 582 0 0.345843f
c47 566 0 0.114597f
c48 414 0 14.0341f
c49 364 0 14.0339f
c50 251 0 14.0361f
c51 201 0 14.0346f
c52 38 0 14.0375f
c53 14 0 0.146306f
r54 1048 1050 0.00282778 
r55 1047 1048 0.355444 
r56 1044 1047 0.00283333 
r57 1038 1039 0.188182 
r58 1037 1038 0.0396791 
r59 1002 1003 0.0140639 
r60 999 1000 0.0253476 
r61 998 999 0.0255615 
r62 997 998 0.0203209 
r63 996 997 0.0213904 
r64 995 996 0.0744385 
r65 987 988 0.0126606 
r66 1033 985 0.0113761 
r67 983 985 0.0638298 
r68 977 980 0.0335135 
r69 977 1039 2 
r70 964 1038 0.6 
r71 961 964 0.285 
r72 958 1037 0.6 
r73 955 958 0.32 
r74 943 1000 0.6 
r75 940 943 0.9975 
r76 937 999 0.6 
r77 934 937 0.995 
r78 931 998 0.6 
r79 928 931 0.194286 
r80 925 997 0.6 
r81 922 925 0.3175 
r82 919 996 0.666667 
r83 917 919 0.96 
r84 912 987 0.013211 
r85 983 912 0.000917431 
r86 910 912 0.000913242 
r87 910 1002 0.0638298 
r88 900 901 0.02 
r89 899 1002 0.0113242 
r90 897 899 0.0327869 
r91 897 900 0.0166784 
r92 895 897 0.029258 
r93 892 1048 0.357143 
r94 889 892 0.21 
r95 887 1041 0.00544385 
r96 1039 887 0.123904 
r97 885 887 1 
r98 885 889 0.445 
r99 880 882 0.00612761 
r100 880 1033 0.0327869 
r101 1027 878 0.00301483 
r102 878 1031 0.00301741 
r103 876 878 0.0266667 
r104 876 880 0.0287785 
r105 970 875 0.130435 
r106 875 1025 0.00301741 
r107 1022 875 0.00301741 
r108 873 875 0.0266667 
r109 873 876 0.0242129 
r110 1016 872 0.00301483 
r111 872 1020 0.00301741 
r112 870 872 0.0266667 
r113 870 873 0.0242129 
r114 869 870 0.000615582 
r115 949 868 0.130435 
r116 868 1014 0.00301741 
r117 1011 868 0.00301741 
r118 866 868 0.0266667 
r119 866 869 0.0235973 
r120 1005 865 0.00301483 
r121 865 1009 0.00301741 
r122 863 865 0.0266667 
r123 863 866 0.0242129 
r124 862 895 0.02 
r125 862 863 0.0277012 
r126 859 995 0.6 
r127 900 857 0.429445 
r128 857 859 2.21804 
r129 854 1047 0.357143 
r130 851 854 0.21 
r131 849 995 0.017861 
r132 991 849 0.00545455 
r133 847 849 1 
r134 847 851 0.445 
r135 836 1000 0.0350802 
r136 836 837 0.00175232 
r137 835 1037 0.108984 
r138 835 837 0.00175232 
r139 828 837 0.087289 
r140 828 829 3.90303 
r141 824 988 0.230275 
r142 822 983 0.210275 
r143 820 914 0.229041 
r144 820 821 0.0863581 
r145 818 910 0.209132 
r146 818 819 0.0863581 
r147 824 816 0.0861375 
r148 816 817 0.132033 
r149 822 815 0.0861375 
r150 785 912 0.128 
r151 784 817 0.0473573 
r152 784 912 0.126 
r153 754 785 0.0473573 
r154 821 754 0.132033 
r155 750 912 0.126 
r156 749 917 1.1475 
r157 748 912 0.128 
r158 747 748 0.0473573 
r159 747 819 0.250407 
r160 829 587 6 
r161 584 585 0.0834783 
r162 584 587 0.735758 
r163 749 582 0.0338756 
r164 565 582 0.00880368 
r165 565 566 0.1375 
r166 511 844 0.0419737 
r167 840 511 0.0413851 
r168 869 511 0.00128205 
r169 878 499 0.130435 
r170 970 414 0.00313778 
r171 1025 414 0.0652174 
r172 499 404 0.0031351 
r173 1027 404 0.0652174 
r174 364 499 0.00314046 
r175 1031 364 0.0652174 
r176 985 353 0.0141284 
r177 353 987 0.0652174 
r178 872 336 0.130435 
r179 949 251 0.00313778 
r180 1014 251 0.0652174 
r181 336 241 0.0031351 
r182 1016 241 0.0652174 
r183 201 336 0.00314046 
r184 1020 201 0.0652174 
r185 191 970 0.00313778 
r186 1022 191 0.0652174 
r187 865 173 0.130435 
r188 88 914 0.0126027 
r189 912 88 0.0131507 
r190 1003 88 0.0652174 
r191 173 78 0.0031351 
r192 1005 78 0.0652174 