* File: pc3o02.dist.sp.pex
* Created: Sun Jul  4 12:37:43 2010
* Program "Calibre xRC"
* Version "v2008.4_19.14"
* Nominal Temperature: 27C
* Circuit Temperature: 27C
* 
.subckt PM_PC3O02%noxref_2 8 18
c0 20 0 4.64656f
c1 18 0 1.03921f
c2 8 0 5.83053f
r3 18 20 0.131053 
r4 20 8 0.144632 
.ends

.subckt PM_PC3O02%PAD 21 50 91 120 161 190 254 278 302 326 356 362 431 470 494
+ 501
c0 509 0 29.1049f
c1 502 0 83.2455f
c2 501 0 64.3341f
c3 498 0 159.215f
c4 493 0 0.992829f
c5 488 0 12.1265f
c6 476 0 13.1452f
c7 467 0 0.118304f
c8 465 0 206.515f
c9 450 0 15.3329f
c10 439 0 46.9405f
c11 434 0 65.4578f
c12 432 0 15.8699f
c13 431 0 1.01632f
c14 430 0 0.217689f
c15 362 0 13.1526f
c16 356 0 13.106f
c17 326 0 13.1036f
c18 302 0 13.117f
c19 278 0 13.3644f
c20 254 0 13.1036f
c21 212 0 7.52869f
c22 190 0 2.98621f
c23 173 0 6.78371f
c24 161 0 2.99598f
c25 144 0 6.78264f
c26 120 0 2.98555f
c27 103 0 6.78371f
c28 91 0 2.98555f
c29 74 0 6.78371f
c30 50 0 2.98542f
c31 33 0 6.78371f
c32 21 0 2.98555f
c33 4 0 6.78371f
r34 509 510 0.0174349 
r35 508 509 0.100972 
r36 507 508 0.118407 
r37 506 507 0.056883 
r38 505 506 0.061524 
r39 504 505 0.118407 
r40 503 504 0.118407 
r41 501 502 0.0124825 
r42 499 501 0.000593149 
r43 498 499 0.0669731 
r44 493 494 0.00916 
r45 488 509 0.06 
r46 476 506 0.015 
r47 467 470 0.00916 
r48 467 493 2 
r49 465 476 0.0264274 
r50 463 465 0.147454 
r51 463 464 0.0288462 
r52 457 458 0.00752787 
r53 456 457 0.021023 
r54 454 456 0.000537705 
r55 454 498 0.00162999 
r56 452 454 0.000537705 
r57 450 452 0.0285508 
r58 441 493 0.1388 
r59 440 441 0.132996 
r60 439 440 0.0171733 
r61 436 437 0.0171733 
r62 435 436 0.0171733 
r63 434 435 0.0171733 
r64 433 439 0.0142401 
r65 433 437 0.00293318 
r66 432 464 0.00646891 
r67 432 434 0.00818451 
r68 430 488 0.217989 
r69 430 431 0.0147368 
r70 351 356 0.0072093 
r71 434 351 0.0566038 
r72 349 362 0.0072093 
r73 440 349 0.0566038 
r74 322 326 0.0072093 
r75 439 322 0.0566038 
r76 298 302 0.0072093 
r77 437 298 0.0566038 
r78 274 278 0.0072093 
r79 436 274 0.0566038 
r80 250 254 0.0072093 
r81 435 250 0.0566038 
r82 230 233 0.0022831 
r83 458 230 0.0375475 
r84 230 499 0.00547945 
r85 456 229 0.00210084 
r86 227 229 0.000537705 
r87 452 227 0.00210084 
r88 229 218 0.0105115 
r89 457 218 0.00712251 
r90 214 233 0.0187738 
r91 218 214 0.00376393 
r92 458 214 0.00712251 
r93 212 227 0.0142754 
r94 450 212 0.00356125 
r95 502 197 0.345778 
r96 196 508 0.0220132 
r97 196 197 0.319822 
r98 190 177 0.00249413 
r99 197 177 0.0425532 
r100 173 190 0.00249413 
r101 197 173 0.0425532 
r102 502 168 0.345778 
r103 167 510 0.0220132 
r104 167 168 0.319822 
r105 161 148 0.00249413 
r106 168 148 0.0425532 
r107 144 161 0.00249413 
r108 168 144 0.0425532 
r109 502 127 0.345778 
r110 126 505 0.0220132 
r111 126 127 0.319822 
r112 120 107 0.00249413 
r113 127 107 0.0425532 
r114 103 120 0.00249413 
r115 127 103 0.0425532 
r116 502 98 0.345778 
r117 97 507 0.0220132 
r118 97 98 0.319822 
r119 91 78 0.00249413 
r120 98 78 0.0425532 
r121 74 91 0.00249413 
r122 98 74 0.0425532 
r123 502 57 0.345778 
r124 56 503 0.0220132 
r125 56 57 0.319822 
r126 50 37 0.00249413 
r127 57 37 0.0425532 
r128 33 50 0.00249413 
r129 57 33 0.0425532 
r130 502 28 0.345778 
r131 27 504 0.0220132 
r132 27 28 0.319822 
r133 21 8 0.00249413 
r134 28 8 0.0425532 
r135 4 21 0.00249413 
r136 28 4 0.0425532 
.ends

.subckt PM_PC3O02%VSS 854 918 941 972 981 991 994 1000
c0 1000 0 90.2716f
c1 991 0 48.8088f
c2 980 0 80.2003f
c3 978 0 2.63452f
c4 972 0 0.00260083f
c5 969 0 1.06717f
c6 938 0 1.87234f
c7 930 0 14.713f
c8 915 0 1.44623f
c9 879 0 0.168829f
c10 875 0 24.8176f
c11 864 0 0.0775028f
c12 863 0 0.0432851f
c13 862 0 1.91003f
c14 861 0 0.0232103f
c15 859 0 0.575241f
c16 854 0 1.98462f
c17 849 0 4.28426f
c18 848 0 2.78365f
c19 846 0 3.11758f
c20 844 0 0.146915f
c21 841 0 18.92f
c22 840 0 4.17359f
c23 839 0 0.0389222f
c24 838 0 1.77887f
c25 832 0 8.71051f
c26 829 0 0.196453f
c27 828 0 0.0922443f
c28 827 0 1.6716f
c29 700 0 1.93193f
c30 680 0 1.329f
c31 678 0 0.205588f
c32 676 0 0.270234f
c33 673 0 23.8079f
c34 670 0 2.38961f
c35 655 0 2.42772f
c36 649 0 2.03669f
c37 645 0 0.135881f
c38 644 0 2.46779f
c39 643 0 0.117466f
c40 642 0 2.24284f
c41 639 0 6.92478f
c42 595 0 0.162892f
c43 593 0 0.721903f
c44 591 0 0.204021f
c45 566 0 2.94565f
c46 552 0 3.0753f
c47 550 0 0.031054f
c48 546 0 3.12812f
c49 545 0 0.161087f
c50 530 0 4.23396f
c51 527 0 3.0176f
r52 998 1000 0.000702051 
r53 997 998 0.0832563 
r54 994 997 0.000703354 
r55 990 991 0.00318245 
r56 987 988 0.0486142 
r57 986 987 0.153061 
r58 985 986 0.107717 
r59 978 990 0.461538 
r60 969 972 1.28857 
r61 969 987 1.5 
r62 966 986 0.047619 
r63 945 990 0.00119641 
r64 988 945 0.110269 
r65 943 945 0.428571 
r66 941 943 0.189 
r67 938 941 0.013 
r68 938 998 0.131579 
r69 934 935 0.572589 
r70 933 934 1.12122 
r71 930 933 0.628223 
r72 930 988 0.3 
r73 926 927 0.8265 
r74 922 985 0.09001 
r75 981 922 0.00438684 
r76 920 922 0.428571 
r77 918 920 0.189 
r78 915 918 0.013 
r79 915 997 0.131579 
r80 862 966 2.429 
r81 862 863 0.0338756 
r82 860 966 0.052 
r83 860 861 0.0175768 
r84 858 910 3 
r85 857 864 0.0338756 
r86 857 858 0.086 
r87 856 863 0.0338756 
r88 854 908 2.59036 
r89 853 864 0.00880368 
r90 853 854 0.882 
r91 852 863 0.00880368 
r92 852 854 1.062 
r93 850 980 0.0175768 
r94 850 854 0.6945 
r95 849 864 0.0338756 
r96 849 854 1.7865 
r97 848 980 0.0270064 
r98 847 861 0.0270064 
r99 847 848 4.09263 
r100 844 859 0.0577061 
r101 840 980 0.0175768 
r102 838 861 0.0175768 
r103 838 839 2.364 
r104 837 839 0.0446983 
r105 835 978 1.518 
r106 834 978 0.426 
r107 832 908 1.08482 
r108 828 841 0.087 
r109 827 828 0.0446983 
r110 827 837 1.944 
r111 700 901 3 
r112 697 854 1.07807 
r113 829 697 1.06072 
r114 697 704 1 
r115 840 688 1.0165 
r116 841 688 1.2605 
r117 688 879 3 
r118 901 680 0.231111 
r119 934 680 1.5 
r120 910 678 0.000888889 
r121 933 678 3 
r122 676 908 3 
r123 935 676 3 
r124 673 926 0.3056 
r125 673 985 0.125 
r126 672 879 0.0005 
r127 926 672 3 
r128 670 704 0.00750563 
r129 702 670 0.056042 
r130 927 670 0.24 
r131 668 846 0.102486 
r132 844 668 0.078239 
r133 875 668 1 
r134 666 875 0.9634 
r135 666 702 0.020015 
r136 655 858 1.291 
r137 835 655 0.0446983 
r138 654 700 0.835122 
r139 653 700 0.56878 
r140 648 649 1.37048 
r141 645 654 0.0448242 
r142 645 646 0.678222 
r143 644 649 0.0447675 
r144 644 646 0.650667 
r145 643 653 0.0446983 
r146 642 648 0.0447067 
r147 642 643 1.45854 
r148 639 856 1.377 
r149 639 834 0.0446983 
r150 594 595 0.147619 
r151 590 591 0.14988 
r152 832 590 0.0380723 
r153 587 589 0.143333 
r154 829 586 0.0385542 
r155 584 586 0.14506 
r156 854 583 0.159 
r157 566 854 0.159 
r158 565 595 0.02 
r159 565 583 1.247 
r160 564 591 0.02 
r161 564 566 1.243 
r162 854 563 0.192 
r163 561 854 0.192 
r164 560 561 0.342 
r165 854 560 0.192 
r166 558 854 0.192 
r167 557 558 0.342 
r168 854 557 0.192 
r169 555 854 0.192 
r170 554 555 0.342 
r171 854 554 0.192 
r172 552 854 0.192 
r173 551 594 0.02 
r174 551 563 1.214 
r175 550 593 0.04 
r176 550 552 0.243 
r177 548 590 0.02 
r178 548 593 0.938734 
r179 546 594 0.0380952 
r180 546 846 4.80524 
r181 545 859 0.555238 
r182 545 589 0.0380952 
r183 854 541 0.159 
r184 539 854 0.159 
r185 538 539 0.408 
r186 854 538 0.159 
r187 536 854 0.159 
r188 535 536 0.408 
r189 854 535 0.159 
r190 533 854 0.159 
r191 532 533 0.408 
r192 854 532 0.159 
r193 530 854 0.159 
r194 529 589 0.02 
r195 529 541 1.247 
r196 528 586 0.02 
r197 528 530 1.243 
r198 527 587 0.02 
r199 526 584 0.02 
r200 526 527 4.69271 
.ends

.subckt PM_PC3O02%U29_U74$7_gate 90 95 193 198 279 284 289 295 319
c0 415 0 0.472062f
c1 410 0 0.471663f
c2 405 0 0.47164f
c3 388 0 0.704978f
c4 382 0 0.11347f
c5 381 0 0.219801f
c6 380 0 0.222583f
c7 379 0 0.222583f
c8 376 0 0.245462f
c9 372 0 0.202064f
c10 370 0 7.45301f
c11 368 0 0.353323f
c12 365 0 4.2459f
c13 364 0 0.775003f
c14 360 0 1.2145f
c15 359 0 0.781835f
c16 355 0 1.20798f
c17 354 0 0.781893f
c18 351 0 0.153106f
c19 350 0 1.19656f
c20 349 0 0.553855f
c21 348 0 0.293986f
c22 345 0 13.3243f
c23 343 0 0.217137f
c24 334 0 1.73618f
c25 332 0 0.468858f
c26 323 0 0.060459f
c27 322 0 0.112142f
c28 318 0 0.290636f
c29 310 0 0.534584f
c30 304 0 0.30595f
c31 299 0 0.16459f
c32 298 0 0.617242f
c33 297 0 0.171649f
c34 296 0 0.55351f
c35 295 0 3.10391f
c36 289 0 3.04448f
c37 284 0 3.04448f
c38 279 0 3.10224f
c39 229 0 0.280673f
c40 208 0 0.980037f
c41 198 0 3.04451f
c42 197 0 0.172383f
c43 193 0 3.04448f
c44 192 0 0.172356f
c45 105 0 0.979984f
c46 95 0 3.04447f
c47 94 0 0.172374f
c48 90 0 3.04451f
c49 89 0 0.172415f
r50 376 417 3 
r51 374 382 0.00530238 
r52 374 376 0.121519 
r53 370 372 3 
r54 369 382 0.0383059 
r55 369 370 3.78706 
r56 368 382 0.0383059 
r57 367 368 0.203529 
r58 366 381 0.0982843 
r59 365 367 0.0487211 
r60 365 366 5.022 
r61 364 381 0.0211346 
r62 363 415 0.000487805 
r63 412 363 0.055122 
r64 362 364 0.0820194 
r65 362 363 1.5 
r66 361 380 0.0988934 
r67 360 381 0.0982843 
r68 360 361 1.499 
r69 359 380 0.0212878 
r70 358 410 0.00292683 
r71 407 358 0.0526829 
r72 357 359 0.081033 
r73 357 358 1.5 
r74 356 379 0.0988934 
r75 355 380 0.0988934 
r76 355 356 1.491 
r77 354 379 0.0212878 
r78 353 405 0.00536585 
r79 402 353 0.0502439 
r80 352 354 0.081033 
r81 352 353 1.5 
r82 350 379 0.0988934 
r83 350 351 1.477 
r84 349 351 0.0603773 
r85 398 348 0.0521951 
r86 347 349 0.139693 
r87 347 348 3 
r88 392 345 1.46667 
r89 343 345 3 
r90 342 372 0.0215734 
r91 342 343 0.138795 
r92 337 392 6 
r93 332 334 6 
r94 332 337 0.887742 
r95 331 334 3.24387 
r96 326 388 0.00142683 
r97 322 331 0.0446983 
r98 322 323 0.130323 
r99 318 323 0.0664522 
r100 318 319 0.0466667 
r101 299 388 1.85294 
r102 298 310 5.05882 
r103 297 310 5.05882 
r104 296 304 1.85294 
r105 291 299 3.88985 
r106 291 295 183.96 
r107 286 298 3.88985 
r108 286 289 183.96 
r109 281 297 3.88985 
r110 281 284 183.96 
r111 276 296 3.88985 
r112 276 279 183.96 
r113 417 229 0.00341463 
r114 229 326 3 
r115 203 208 5.05882 
r116 202 208 5.05882 
r117 197 203 3.88985 
r118 197 198 183.96 
r119 192 202 3.88985 
r120 192 193 183.96 
r121 310 163 0.00142683 
r122 410 163 3 
r123 208 152 0.00133393 
r124 412 152 3 
r125 134 208 0.0278113 
r126 415 134 3 
r127 100 105 5.05882 
r128 99 105 5.05882 
r129 94 100 3.88985 
r130 94 95 183.96 
r131 89 99 3.88985 
r132 89 90 183.96 
r133 304 60 0.00142683 
r134 398 60 3 
r135 105 49 0.00133393 
r136 402 49 3 
r137 24 105 0.0278113 
r138 405 24 3 
r139 310 13 0.0277856 
r140 407 13 3 
.ends

.subckt PM_PC3O02%ngate 81 88 93 104 144 146 165 193 199
c0 242 0 16.4117f
c1 235 0 0.535895f
c2 234 0 0.719627f
c3 231 0 0.0639127f
c4 230 0 6.50057f
c5 229 0 6.25508f
c6 226 0 0.165918f
c7 223 0 0.274515f
c8 221 0 0.123643f
c9 220 0 0.0493588f
c10 211 0 2.93621f
c11 201 0 0.60903f
c12 200 0 0.169944f
c13 199 0 3.04886f
c14 193 0 3.04886f
c15 165 0 1.53316f
c16 153 0 0.390306f
c17 146 0 0.624314f
c18 144 0 0.898246f
c19 141 0 0.139901f
c20 138 0 0.143097f
c21 126 0 2.09986f
c22 125 0 0.244896f
c23 119 0 2.99749f
c24 115 0 0.0811924f
c25 112 0 0.109829f
c26 108 0 0.0380767f
c27 104 0 0.951344f
c28 102 0 1.5194f
c29 100 0 0.0826648f
c30 99 0 0.338311f
c31 97 0 0.418528f
c32 93 0 1.3223f
c33 88 0 1.47424f
c34 86 0 0.0572359f
c35 85 0 0.766022f
c36 81 0 1.44044f
c37 33 0 0.470994f
r38 241 242 3.352 
r39 238 241 1.684 
r40 232 234 0.0757353 
r41 232 249 1.5 
r42 230 234 0.0780695 
r43 230 231 7.138 
r44 228 231 0.0446983 
r45 228 229 6.482 
r46 238 226 6 
r47 224 226 6 
r48 223 229 0.0458951 
r49 223 224 0.306667 
r50 220 221 0.111111 
r51 216 220 0.0448998 
r52 235 208 0.00142683 
r53 205 235 0.0277856 
r54 201 235 5.05882 
r55 200 235 5.05882 
r56 195 201 3.88985 
r57 195 199 183.96 
r58 190 200 3.88985 
r59 190 193 183.96 
r60 141 146 60 
r61 141 160 3.77986 
r62 138 144 85 
r63 138 153 3.53757 
r64 165 129 1.63125 
r65 221 129 6 
r66 126 218 2.2825 
r67 216 126 1.29875 
r68 126 242 6 
r69 218 125 6 
r70 153 123 0.3325 
r71 211 123 6 
r72 120 214 2.2825 
r73 211 120 1.32 
r74 120 241 6 
r75 119 160 3.7825 
r76 214 119 6 
r77 117 165 1.3625 
r78 114 115 0.101935 
r79 110 125 0.295 
r80 109 112 0.0748718 
r81 109 110 0.02 
r82 103 115 0.02 
r83 103 104 1.2375 
r84 102 114 0.02 
r85 101 112 0.02 
r86 101 102 2.71 
r87 99 114 0.0412903 
r88 99 100 0.424516 
r89 98 108 0.0263189 
r90 97 117 0.0459603 
r91 97 98 0.379535 
r92 92 100 0.044713 
r93 92 93 1.2375 
r94 87 108 0.0159026 
r95 87 88 1.3625 
r96 85 108 0.0263189 
r97 85 86 0.885581 
r98 80 86 0.0459603 
r99 80 81 1.4225 
r100 249 33 0.00195122 
r101 33 208 3 
r102 8 249 0.0536585 
r103 8 205 3 
.ends

.subckt PM_PC3O02%U29_U37_r2 22 41 72 91 122 141 206 209 229
c0 343 0 0.855321f
c1 338 0 0.701162f
c2 334 0 0.32269f
c3 332 0 0.32269f
c4 331 0 0.306609f
c5 329 0 0.323081f
c6 328 0 0.32269f
c7 326 0 0.32269f
c8 322 0 4.68958f
c9 320 0 16.0557f
c10 314 0 0.309607f
c11 312 0 0.309607f
c12 311 0 0.293407f
c13 309 0 0.309998f
c14 308 0 0.309607f
c15 306 0 0.309607f
c16 302 0 4.80542f
c17 298 0 15.7579f
c18 291 0 0.295895f
c19 285 0 7.50152f
c20 279 0 0.259177f
c21 277 0 5.48513f
c22 269 0 0.400821f
c23 267 0 0.951822f
c24 266 0 0.8763f
c25 253 0 5.1583f
c26 251 0 0.0819429f
c27 249 0 0.34826f
c28 235 0 4.45534f
c29 233 0 0.0752514f
c30 229 0 0.320429f
c31 228 0 0.0658877f
c32 201 0 5.08567f
c33 200 0 0.436714f
c34 197 0 0.337763f
c35 194 0 0.309862f
c36 171 0 4.93087f
c37 169 0 0.107369f
c38 167 0 0.129214f
c39 126 0 4.97938f
c40 124 0 0.129782f
c41 107 0 4.92465f
c42 105 0 0.106492f
c43 76 0 4.89076f
c44 74 0 0.105999f
c45 57 0 4.91695f
c46 55 0 0.105999f
c47 26 0 4.92236f
c48 24 0 0.105999f
c49 7 0 4.92236f
c50 5 0 0.105999f
r51 331 332 0.32839 
r52 328 329 0.32839 
r53 327 328 0.220488 
r54 326 327 0.159415 
r55 322 324 0.154146 
r56 317 320 0.872 
r57 317 343 6 
r58 311 312 0.327902 
r59 308 309 0.327902 
r60 307 308 0.219512 
r61 306 307 0.160878 
r62 302 304 0.157073 
r63 343 300 1.064 
r64 298 300 6 
r65 295 298 13.8293 
r66 290 291 3 
r67 285 300 6 
r68 285 290 4.22645 
r69 282 338 6 
r70 295 279 6 
r71 277 279 6 
r72 277 282 5.18 
r73 276 338 0.462951 
r74 272 320 6 
r75 267 269 6 
r76 267 272 1.41161 
r77 265 266 0.579355 
r78 263 334 0.202927 
r79 332 263 0.176976 
r80 261 263 6 
r81 260 331 0.211707 
r82 329 260 0.168195 
r83 258 260 6 
r84 258 261 0.717073 
r85 255 327 6 
r86 255 258 0.717073 
r87 253 255 0.717561 
r88 253 324 6 
r89 251 266 0.0424736 
r90 251 253 0.170244 
r91 250 291 0.022693 
r92 249 265 0.0446983 
r93 249 250 0.163871 
r94 245 314 0.219512 
r95 312 245 0.160878 
r96 243 245 6 
r97 242 311 0.219512 
r98 309 242 0.160878 
r99 240 242 6 
r100 240 243 0.708293 
r101 237 307 6 
r102 237 240 0.708293 
r103 235 237 0.708293 
r104 235 304 6 
r105 233 276 0.0454172 
r106 233 235 0.21561 
r107 232 269 0.643871 
r108 228 232 0.055223 
r109 228 229 0.109189 
r110 201 206 394.95 
r111 200 322 2.85294 
r112 200 201 1.5 
r113 197 326 0.32839 
r114 324 197 0.229756 
r115 194 306 0.327902 
r116 304 194 0.219512 
r117 172 197 2.04706 
r118 171 209 394.95 
r119 171 172 4.2601 
r120 170 194 2.04706 
r121 169 209 394.95 
r122 169 170 4.2601 
r123 168 302 2.07059 
r124 167 206 394.95 
r125 167 168 4.2601 
r126 127 334 2.07647 
r127 126 141 394.95 
r128 126 127 4.2601 
r129 125 314 2.07647 
r130 124 141 394.95 
r131 124 125 4.2601 
r132 108 332 2.07647 
r133 107 122 394.95 
r134 107 108 4.2601 
r135 106 312 2.07647 
r136 105 122 394.95 
r137 105 106 4.2601 
r138 77 331 2.07647 
r139 76 91 394.95 
r140 76 77 4.2601 
r141 75 311 2.07647 
r142 74 91 394.95 
r143 74 75 4.2601 
r144 58 329 2.07647 
r145 57 72 394.95 
r146 57 58 4.2601 
r147 56 309 2.07647 
r148 55 72 394.95 
r149 55 56 4.2601 
r150 27 328 2.07647 
r151 26 41 394.95 
r152 26 27 4.2601 
r153 25 308 2.07647 
r154 24 41 394.95 
r155 24 25 4.2601 
r156 8 326 2.07647 
r157 7 22 394.95 
r158 7 8 4.2601 
r159 6 306 2.07647 
r160 5 22 394.95 
r161 5 6 4.2601 
.ends

.subckt PM_PC3O02%pgate 18 37 97 99 118 120 127 134 143 171
c0 247 0 15.787f
c1 235 0 0.391813f
c2 232 0 0.309607f
c3 229 0 2.40756f
c4 225 0 0.517496f
c5 216 0 10.2308f
c6 211 0 4.44946f
c7 202 0 2.52232f
c8 196 0 2.15675f
c9 189 0 2.419f
c10 187 0 0.097961f
c11 186 0 0.535794f
c12 171 0 0.00463128f
c13 169 0 2.84474f
c14 160 0 15.698f
c15 156 0 0.028277f
c16 154 0 0.0233737f
c17 153 0 0.203576f
c18 152 0 0.028277f
c19 143 0 1.39596f
c20 140 0 0.333301f
c21 138 0 0.367229f
c22 134 0 1.09199f
c23 131 0 0.299439f
c24 127 0 2.01991f
c25 125 0 0.0451266f
c26 124 0 0.283008f
c27 120 0 2.08639f
c28 118 0 1.44218f
c29 95 0 5.10529f
c30 91 0 0.41942f
c31 86 0 4.81603f
c32 85 0 0.3815f
c33 73 0 0.370539f
c34 34 0 0.32269f
c35 22 0 4.92236f
c36 20 0 0.105999f
c37 15 0 2.50836f
c38 3 0 4.99307f
c39 1 0 0.129526f
r40 232 233 0.323902 
r41 225 247 0.36 
r42 223 225 6 
r43 214 216 6 
r44 211 214 5.82439 
r45 211 247 6 
r46 209 216 9.5181 
r47 206 242 6 
r48 202 206 0.708293 
r49 202 239 6 
r50 196 198 2.3 
r51 195 235 0.219512 
r52 233 195 0.164878 
r53 193 195 6 
r54 191 232 0.219512 
r55 229 191 0.160878 
r56 189 191 6 
r57 189 193 0.708293 
r58 188 193 0.419512 
r59 187 209 0.0463653 
r60 186 188 0.0462628 
r61 186 187 0.27661 
r62 169 171 4.4175 
r63 196 162 6 
r64 223 160 4.484 
r65 198 160 6 
r66 198 157 1.405 
r67 157 169 6 
r68 155 171 1.3875 
r69 155 156 0.00880368 
r70 153 162 0.118614 
r71 153 154 0.0331099 
r72 142 143 1.28 
r73 141 156 0.0338756 
r74 140 147 0.0446983 
r75 140 141 0.51 
r76 139 154 0.00945187 
r77 138 142 0.0448998 
r78 138 139 0.431111 
r79 133 154 0.0331099 
r80 133 134 1.28 
r81 132 152 0.0338756 
r82 131 156 0.0338756 
r83 131 132 0.5825 
r84 126 152 0.00880368 
r85 126 127 2.485 
r86 124 152 0.0338756 
r87 124 125 0.51 
r88 119 125 0.0446983 
r89 119 120 2.485 
r90 147 118 1.3875 
r91 95 99 394.95 
r92 94 95 1.5 
r93 242 91 0.219512 
r94 91 94 2.81176 
r95 88 242 0.16439 
r96 86 97 394.95 
r97 85 88 2.74706 
r98 85 86 1.5 
r99 83 99 394.95 
r100 235 82 2.78235 
r101 82 83 1.5 
r102 74 97 394.95 
r103 73 233 2.74706 
r104 73 74 1.5 
r105 34 88 0.32439 
r106 239 34 0.219512 
r107 23 34 2.07647 
r108 22 37 394.95 
r109 22 23 4.2601 
r110 21 232 2.07647 
r111 20 37 394.95 
r112 20 21 4.2601 
r113 15 239 0.16039 
r114 4 15 2.07647 
r115 3 18 394.95 
r116 3 4 4.2601 
r117 2 229 2.07647 
r118 1 18 394.95 
r119 1 2 4.2601 
.ends

.subckt PM_PC3O02%VDDO 875 880 887 894 901 908 915 922 1000 1003 1008 1064 1251
+ 1308 1312 1315 1320 1326 1333 1354 1382 1396 1404 1411 1417 1423 1465 1475 1504
+ 1509
c0 1509 0 20.5349f
c1 1501 0 4.72983f
c2 1492 0 6.80765f
c3 1483 0 8.85211f
c4 1478 0 8.9518f
c5 1475 0 45.1222f
c6 1462 0 2.98997f
c7 1423 0 2.75879f
c8 1417 0 0.561438f
c9 1411 0 1.43417f
c10 1408 0 3.0643f
c11 1393 0 0.505057f
c12 1386 0 31.7473f
c13 1385 0 1.97227f
c14 1382 0 62.7001f
c15 1381 0 2.02299f
c16 1332 0 50.7046f
c17 1323 0 0.657641f
c18 1320 0 3.02659f
c19 1312 0 2.50057f
c20 1299 0 1.90631f
c21 1297 0 0.243907f
c22 1287 0 0.149549f
c23 1285 0 0.387402f
c24 1279 0 0.105821f
c25 1269 0 0.193678f
c26 1265 0 0.520209f
c27 1260 0 2.05257f
c28 1255 0 0.0602345f
c29 1254 0 0.114271f
c30 1250 0 0.290708f
c31 1218 0 10.2422f
c32 1217 0 9.76182f
c33 1075 0 0.336998f
c34 1058 0 11.5797f
c35 1037 0 0.210871f
c36 1033 0 2.09729f
c37 1029 0 2.29716f
c38 1023 0 7.61693f
c39 1022 0 4.59836f
c40 1020 0 0.0193183f
c41 1019 0 4.28225f
c42 1014 0 0.0933651f
c43 1008 0 4.09112e-19
c44 1007 0 2.58371f
c45 1003 0 1.44145f
c46 1000 0 0.480673f
c47 998 0 0.0516021f
c48 997 0 0.134365f
c49 927 0 7.19561f
c50 922 0 0.0208826f
c51 915 0 0.0106455f
c52 908 0 0.0196491f
c53 901 0 0.0106455f
c54 894 0 0.0106455f
c55 887 0 0.0106455f
c56 880 0 0.0093986f
c57 875 0 8.15127f
c58 847 0 11.8129f
c59 845 0 19.4159f
c60 843 0 19.4159f
c61 841 0 19.4447f
c62 839 0 19.2575f
c63 837 0 19.4159f
c64 835 0 11.7222f
c65 809 0 0.160675f
c66 808 0 6.58599f
c67 805 0 0.115559f
c68 804 0 6.16684f
c69 21 0 0.152029f
c70 20 0 6.72578f
c71 11 0 0.152029f
c72 10 0 6.75738f
r73 1504 1507 0.00394881 
r74 1501 1502 0.951776 
r75 1494 1495 0.279231 
r76 1492 1494 0.266538 
r77 1485 1486 0.273962 
r78 1483 1485 0.261509 
r79 1479 1480 1.79477 
r80 1478 1479 0.000373832 
r81 1472 1473 0.422353 
r82 1471 1472 0.047146 
r83 1470 1471 0.0354684 
r84 1469 1470 0.0518954 
r85 1464 1475 0.00304139 
r86 1473 1464 0.00174292 
r87 1462 1464 0.461538 
r88 1426 1472 0.545455 
r89 1423 1426 1.5075 
r90 1420 1471 0.75 
r91 1417 1420 0.1575 
r92 1414 1470 0.75 
r93 1411 1414 1.1525 
r94 1410 1469 0.00174292 
r95 1465 1410 0.00305011 
r96 1408 1410 0.461538 
r97 1404 1501 0.2 
r98 1400 1509 0.0039415 
r99 1507 1400 0.467422 
r100 1398 1400 0.5 
r101 1396 1398 0.181 
r102 1393 1396 0.17 
r103 1393 1473 1.5 
r104 1390 1391 0.5433 
r105 1389 1390 0.2287 
r106 1388 1389 0.56298 
r107 1386 1388 0.0036 
r108 1385 1404 0.0539366 
r109 1385 1391 0.099 
r110 1502 1381 0.741308 
r111 1379 1381 0.181818 
r112 1379 1382 0.0136564 
r113 1495 1378 0.279231 
r114 1378 1376 0.279231 
r115 1376 1374 0.279231 
r116 1374 1372 0.266538 
r117 1370 1372 1.5 
r118 1370 1374 1.5 
r119 1370 1376 1.5 
r120 1370 1378 1.5 
r121 1370 1379 0.0314855 
r122 1486 1368 0.273962 
r123 1368 1366 0.273962 
r124 1366 1364 0.273962 
r125 1364 1362 0.261509 
r126 1360 1362 1.5 
r127 1360 1364 1.5 
r128 1360 1366 1.5 
r129 1360 1368 1.5 
r130 1480 1359 0.000747664 
r131 1357 1359 0.2 
r132 1357 1360 0.0334274 
r133 1354 1357 0.01361 
r134 1348 1494 1.5 
r135 1348 1492 1.5 
r136 1348 1495 1.5 
r137 1346 1348 0.0694058 
r138 1340 1485 1.5 
r139 1340 1483 1.5 
r140 1340 1346 0.0805639 
r141 1340 1486 1.5 
r142 1336 1478 0.2 
r143 1336 1340 0.0404834 
r144 1333 1336 0.0165962 
r145 1332 1404 0.0234268 
r146 1332 1348 0.0330312 
r147 1329 1507 0.5 
r148 1326 1329 0.181 
r149 1323 1326 0.17 
r150 1323 1469 1.5 
r151 1318 1320 0.0526456 
r152 1315 1318 0.0552365 
r153 1297 1299 6 
r154 1296 1297 0.565161 
r155 1285 1296 0.0564739 
r156 1281 1294 0.1836 
r157 1456 1281 0.0028 
r158 1279 1281 6 
r159 1257 1299 3.20516 
r160 1254 1257 0.0446983 
r161 1254 1255 0.125161 
r162 1250 1255 0.0664522 
r163 1250 1251 0.0466667 
r164 1218 1294 0.0784 
r165 1217 1456 0.2648 
r166 1216 1456 0.2664 
r167 1215 1456 0.2664 
r168 1073 1075 1 
r169 1070 1287 3 
r170 1067 1070 0.2885 
r171 1067 1269 2 
r172 1064 1067 2.755 
r173 1056 1058 3.90065 
r174 1054 1056 5.65419 
r175 1269 1045 0.000233918 
r176 1390 1045 2 
r177 1279 1043 0.000149533 
r178 1388 1043 6 
r179 1075 1041 0.000100503 
r180 1391 1041 1 
r181 1058 1039 2 
r182 1285 1039 0.0553846 
r183 1389 1039 2 
r184 1037 1294 1.5 
r185 1386 1037 1.5 
r186 1287 1035 0.000299625 
r187 1390 1035 3 
r188 1265 1033 6 
r189 1265 1030 0.742857 
r190 1030 1056 6 
r191 1260 1029 3 
r192 1026 1263 3.25857 
r193 1260 1026 0.562857 
r194 1026 1054 6 
r195 1263 1025 6 
r196 1023 1073 0.217284 
r197 1022 1070 0.0845 
r198 1021 1033 4.30714 
r199 1019 1025 0.4915 
r200 1019 1020 0.0149881 
r201 1018 1064 0.203 
r202 1018 1020 0.0149881 
r203 1017 1029 3.47273 
r204 1014 1025 2.4855 
r205 1013 1462 0.526 
r206 1013 1023 0.0447005 
r207 1012 1462 2.122 
r208 1012 1022 0.0446983 
r209 1007 1021 0.0448488 
r210 1007 1008 3.6271 
r211 1002 1020 0.0313149 
r212 1002 1003 1.51 
r213 999 1000 0.21697 
r214 998 1017 0.0446983 
r215 997 999 0.0446983 
r216 997 998 0.225455 
r217 989 1408 2.122 
r218 989 1014 0.0446983 
r219 927 875 0.159252 
r220 938 875 0.159252 
r221 875 945 0.159252 
r222 849 938 0.0829907 
r223 875 849 0.0291589 
r224 1502 849 0.1 
r225 880 847 0.793846 
r226 1492 847 1.5 
r227 887 845 0.55145 
r228 1494 845 1.5 
r229 894 843 0.55145 
r230 1495 843 1.5 
r231 901 841 0.55145 
r232 1378 841 1.5 
r233 908 839 0.55145 
r234 1376 839 1.5 
r235 915 837 0.55145 
r236 1374 837 1.5 
r237 922 835 0.793846 
r238 1372 835 1.5 
r239 833 880 0.842637 
r240 1483 833 1.5 
r241 831 887 0.585344 
r242 1485 831 1.5 
r243 829 894 0.585344 
r244 1486 829 1.5 
r245 827 901 0.585344 
r246 1368 827 1.5 
r247 825 908 0.585344 
r248 1366 825 1.5 
r249 823 915 0.585344 
r250 1364 823 1.5 
r251 821 922 0.842637 
r252 1362 821 1.5 
r253 875 819 0.0391734 
r254 1480 819 0.2 
r255 817 875 0.0397569 
r256 1479 817 0.2 
r257 815 945 0.73271 
r258 814 927 0.737944 
r259 813 875 0.73271 
r260 812 875 0.737944 
r261 809 813 0.0451326 
r262 809 875 2.504 
r263 808 815 0.0451326 
r264 808 875 2.44889 
r265 805 812 0.045921 
r266 805 875 2.687 
r267 804 814 0.045921 
r268 804 875 2.885 
r269 441 1370 0.0601494 
r270 1360 441 0.0634357 
r271 441 1318 0.00227273 
r272 440 1312 0.0620926 
r273 1308 440 0.0688218 
r274 1346 440 0.0025 
r275 1218 21 0.0447329 
r276 21 1456 1.51848 
r277 20 1217 0.0447329 
r278 20 1456 1.51162 
r279 1216 11 0.0447329 
r280 11 1456 1.51848 
r281 10 1215 0.0447329 
r282 10 1456 1.51162 
.ends

.subckt PM_PC3O02%VSSO 171 334 497 516 561 828 832 839 870 877 884 900 902 905
+ 910 916 922 931 937 943 952 962 970 973 1022 1025 1031
c0 1031 0 31.3263f
c1 1022 0 30.6616f
c2 1014 0 7.86105f
c3 1012 0 6.95942f
c4 1006 0 6.97118f
c5 1001 0 6.9962f
c6 995 0 6.99633f
c7 990 0 6.99633f
c8 965 0 8.95235f
c9 962 0 0.29997f
c10 943 0 1.3628f
c11 937 0 1.39344f
c12 922 0 0.980779f
c13 916 0 0.937865f
c14 910 0 0.936445f
c15 905 0 1.69079f
c16 902 0 0.00104217f
c17 900 0 8.25608e-19
c18 898 0 8.96457f
c19 889 0 7.8528f
c20 883 0 1.27875f
c21 873 0 1.67897f
c22 870 0 58.2447f
c23 847 0 5.2063f
c24 835 0 1.19234f
c25 832 0 10.6244f
c26 825 0 0.187348f
c27 824 0 13.2497f
c28 817 0 2.44627f
c29 810 0 0.708327f
c30 809 0 3.24527f
c31 807 0 0.383003f
c32 806 0 0.713156f
c33 805 0 0.293467f
c34 804 0 3.25228f
c35 803 0 0.383249f
c36 773 0 0.123501f
c37 772 0 8.83464f
c38 742 0 0.264591f
c39 738 0 7.03694f
c40 735 0 0.146306f
c41 580 0 0.462565f
c42 578 0 0.0914211f
c43 577 0 0.345843f
c44 561 0 0.114597f
c45 516 0 0.449362f
c46 412 0 14.0371f
c47 362 0 14.034f
c48 249 0 14.0469f
c49 199 0 14.0469f
c50 36 0 14.0469f
c51 14 0 0.146306f
r52 1029 1031 0.00282778 
r53 1028 1029 0.355444 
r54 1025 1028 0.00283333 
r55 1019 1020 0.186898 
r56 1018 1019 0.0396791 
r57 983 984 0.0140639 
r58 980 981 0.0252406 
r59 979 980 0.0437433 
r60 978 979 0.0213904 
r61 977 978 0.0680749 
r62 969 970 0.0126606 
r63 1014 967 0.0113761 
r64 965 967 0.0638298 
r65 959 962 0.0335135 
r66 959 1020 2 
r67 946 1019 0.6 
r68 943 946 0.285 
r69 940 1018 0.6 
r70 937 940 0.32 
r71 925 981 0.6 
r72 922 925 0.34 
r73 919 980 0.6 
r74 916 919 0.34 
r75 913 979 0.6 
r76 910 913 0.3175 
r77 907 978 0.666667 
r78 905 907 0.96 
r79 900 969 0.013211 
r80 965 900 0.000917431 
r81 898 900 0.000913242 
r82 898 983 0.0638298 
r83 889 983 0.0113242 
r84 887 889 0.0327869 
r85 886 887 0.029258 
r86 883 886 0.0131449 
r87 883 884 0.02 
r88 880 1029 0.357143 
r89 877 880 0.21 
r90 875 1022 0.00544385 
r91 1020 875 0.125187 
r92 873 875 1 
r93 873 877 0.445 
r94 868 870 0.00612761 
r95 868 1014 0.0327869 
r96 1008 866 0.00301483 
r97 866 1012 0.00301741 
r98 864 866 0.0266667 
r99 864 868 0.0287785 
r100 952 863 0.130435 
r101 863 1006 0.00301741 
r102 1003 863 0.00301741 
r103 861 863 0.0266667 
r104 861 864 0.0242129 
r105 997 860 0.00301483 
r106 860 1001 0.00301741 
r107 858 860 0.0266667 
r108 858 861 0.0242129 
r109 857 858 0.000615582 
r110 931 856 0.130435 
r111 856 995 0.00301741 
r112 992 856 0.00301741 
r113 854 856 0.0266667 
r114 854 857 0.0235973 
r115 986 853 0.00301483 
r116 853 990 0.00301741 
r117 851 853 0.0266667 
r118 851 854 0.0242129 
r119 850 886 0.02 
r120 850 851 0.0277012 
r121 847 977 0.6 
r122 887 845 0.446124 
r123 845 847 2.21804 
r124 842 1028 0.357143 
r125 839 842 0.21 
r126 837 977 0.017861 
r127 973 837 0.00545455 
r128 835 837 1 
r129 835 839 0.445 
r130 824 981 0.0450267 
r131 824 825 0.00169958 
r132 823 1018 0.107754 
r133 823 825 0.00169958 
r134 816 825 0.0880724 
r135 816 817 4.0275 
r136 812 970 0.230275 
r137 810 965 0.210275 
r138 808 902 0.229041 
r139 808 809 0.0863581 
r140 806 898 0.209132 
r141 806 807 0.0863581 
r142 812 804 0.0861375 
r143 804 805 0.132033 
r144 810 803 0.0861375 
r145 773 900 0.128 
r146 772 805 0.0473573 
r147 772 900 0.126 
r148 742 773 0.0473573 
r149 809 742 0.132033 
r150 738 900 0.126 
r151 737 905 1.1475 
r152 736 900 0.128 
r153 735 736 0.0473573 
r154 735 807 0.250407 
r155 817 580 6 
r156 578 580 0.66125 
r157 737 577 0.0338756 
r158 560 577 0.00880368 
r159 560 561 0.1375 
r160 516 578 0.0454315 
r161 509 832 0.0419737 
r162 828 509 0.0413851 
r163 857 509 0.00128205 
r164 866 497 0.130435 
r165 952 412 0.00313778 
r166 1006 412 0.0652174 
r167 497 402 0.0031351 
r168 1008 402 0.0652174 
r169 362 497 0.00314046 
r170 1012 362 0.0652174 
r171 967 351 0.0141284 
r172 351 969 0.0652174 
r173 860 334 0.130435 
r174 931 249 0.00313778 
r175 995 249 0.0652174 
r176 334 239 0.0031351 
r177 997 239 0.0652174 
r178 199 334 0.00314046 
r179 1001 199 0.0652174 
r180 189 952 0.00313778 
r181 1003 189 0.0652174 
r182 853 171 0.130435 
r183 86 902 0.0126027 
r184 900 86 0.0131507 
r185 984 86 0.0652174 
r186 171 76 0.0031351 
r187 986 76 0.0652174 
r188 36 171 0.00314046 
r189 990 36 0.0652174 
r190 26 931 0.00313778 
r191 992 26 0.0652174 
r192 14 803 0.250407 
r193 14 738 0.0473573 
.ends

.subckt PM_PC3O02%I 72 142 144 146 148 150 152 154 226 261
c0 260 0 0.197619f
c1 257 0 0.199233f
c2 253 0 7.7967f
c3 247 0 15.759f
c4 237 0 0.0943047f
c5 236 0 0.0448781f
c6 231 0 0.136491f
c7 229 0 7.05003f
c8 223 0 0.118765f
c9 221 0 0.0726505f
c10 218 0 0.113366f
c11 212 0 0.96744f
c12 208 0 1.18593f
c13 204 0 1.20388f
c14 203 0 0.0404269f
c15 202 0 3.37885f
c16 196 0 0.055853f
c17 195 0 0.154085f
c18 193 0 0.267997f
c19 162 0 0.308757f
c20 154 0 0.358895f
c21 152 0 0.358411f
c22 150 0 0.468927f
c23 148 0 0.755579f
c24 146 0 0.800816f
c25 144 0 1.32827f
c26 142 0 1.43175f
c27 134 0 0.175716f
c28 123 0 0.124726f
c29 112 0 0.20351f
c30 101 0 0.137606f
c31 96 0 0.122106f
c32 94 0 1.36862f
c33 90 0 0.0902818f
c34 86 0 0.120178f
c35 81 0 2.5976f
c36 80 0 1.4402f
c37 76 0 0.159858f
c38 71 0 0.0461324f
c39 68 0 0.111187f
c40 66 0 0.120275f
c41 63 0 0.608364f
c42 8 0 0.0839101f
c43 5 0 0.229083f
c44 3 0 0.094844f
c45 1 0 0.0261982f