* File: pc3d00.dist.sp.pex
* Created: Sun Jul  4 12:24:11 2010
* Program "Calibre xRC"
* Version "v2008.4_19.14"
* Nominal Temperature: 27C
* Circuit Temperature: 27C
* 
.subckt PM_PC3D00%PADR 45 48 101 150
c0 145 0 7.40512f
c1 131 0 10.7091f
c2 123 0 15.7951f
c3 115 0 5.78819f
c4 105 0 0.188547f
c5 103 0 4.99362f
c6 98 0 0.31087f
c7 96 0 0.119241f
c8 88 0 2.82781f
c9 86 0 0.776102f
c10 85 0 0.15376f
c11 82 0 1.6402f
c12 79 0 1.58719f
c13 75 0 2.66863f
c14 72 0 0.109417f
c15 70 0 0.121193f
c16 68 0 1.3877f
c17 66 0 3.46164f
c18 61 0 11.6014f
c19 55 0 5.67334f
c20 53 0 2.94948f
c21 52 0 0.172684f
c22 48 0 1.64843f
c23 45 0 0.904695f
c24 44 0 12.057f
c25 42 0 9.63982f
c26 41 0 0.409069f
c27 40 0 5.43448f
c28 29 0 0.491033f
r29 147 148 0.000391773 
r30 131 148 3 
r31 128 131 3.20675 
r32 121 123 0.297333 
r33 119 121 14.4093 
r34 108 145 6 
r35 123 105 6 
r36 103 105 6 
r37 103 108 8.1525 
r38 98 150 0.0281293 
r39 148 98 0.0865818 
r40 96 98 6 
r41 96 101 0.0265926 
r42 95 145 12.54 
r43 93 121 3 
r44 90 115 1.5 
r45 88 140 1.4305 
r46 86 88 3 
r47 85 93 0.0162714 
r48 85 86 0.5295 
r49 82 140 3 
r50 77 79 3 
r51 77 82 0.5696 
r52 76 147 0.0244858 
r53 75 95 0.0446983 
r54 75 76 5.7225 
r55 72 128 3 
r56 70 72 0.0872727 
r57 66 68 1.5 
r58 65 90 0.0184328 
r59 65 66 1.07121 
r60 115 63 2.3157 
r61 61 63 3 
r62 60 70 0.0452152 
r63 60 61 4.35441 
r64 57 119 3 
r65 53 55 3 
r66 53 57 0.882581 
r67 52 90 0.026743 
r68 52 57 0.406022 
r69 51 79 0.192704 
r70 47 55 1.71871 
r71 45 46 0.227454 
r72 44 51 0.0618955 
r73 44 46 0.156334 
r74 41 47 0.0704055 
r75 41 42 0.159048 
r76 48 40 0.0254737 
r77 40 42 0.244127 
r78 38 68 0.396522 
r79 29 45 0.109165 
r80 38 29 0.0720621 
.ends

.subckt PM_PC3D00%noxref_2 8 18
c0 20 0 4.60874f
c1 18 0 1.03501f
c2 8 0 5.76762f
r3 18 20 0.131053 
r4 20 8 0.144632 
.ends

.subckt PM_PC3D00%PAD 21 50 91 120 161 190 254 278 302 326 356 362 431 466 492
+ 498
c0 506 0 27.44f
c1 499 0 83.1291f
c2 498 0 64.2651f
c3 495 0 159.215f
c4 491 0 49.9327f
c5 484 0 11.9119f
c6 472 0 12.9561f
c7 466 0 0.990209f
c8 461 0 198.225f
c9 446 0 15.3329f
c10 434 0 65.4578f
c11 432 0 15.7795f
c12 431 0 1.00914f
c13 430 0 0.211917f
c14 362 0 12.7393f
c15 356 0 13.2548f
c16 326 0 12.7172f
c17 302 0 12.7363f
c18 278 0 13.0437f
c19 254 0 13.3051f
c20 212 0 7.52869f
c21 190 0 2.98033f
c22 173 0 6.76801f
c23 161 0 2.98088f
c24 144 0 6.76846f
c25 120 0 2.97938f
c26 103 0 6.76801f
c27 91 0 2.97938f
c28 74 0 6.76801f
c29 50 0 2.97925f
c30 33 0 6.76833f
c31 21 0 2.97938f
c32 4 0 6.76801f
r33 506 507 0.0230793 
r34 505 506 0.0953277 
r35 504 505 0.118407 
r36 503 504 0.0576356 
r37 502 503 0.0607714 
r38 501 502 0.118407 
r39 500 501 0.118407 
r40 498 499 0.0124825 
r41 496 498 0.000593149 
r42 495 496 0.0669731 
r43 491 492 0.00121734 
r44 490 491 0.0186532 
r45 489 490 0.0196835 
r46 484 506 0.06 
r47 472 503 0.015 
r48 463 466 0.0994043 
r49 463 491 0.2 
r50 461 472 0.0264274 
r51 459 461 0.147454 
r52 459 460 0.0288462 
r53 453 454 0.00752787 
r54 452 453 0.021023 
r55 450 452 0.000537705 
r56 450 495 0.00162999 
r57 448 450 0.000537705 
r58 446 448 0.0285508 
r59 436 437 0.0171733 
r60 435 436 0.0171733 
r61 434 435 0.0171733 
r62 433 489 0.0157522 
r63 433 437 0.00293318 
r64 432 460 0.00646891 
r65 432 434 0.00818451 
r66 430 484 0.217989 
r67 430 431 0.0147368 
r68 351 356 0.0072093 
r69 434 351 0.0566038 
r70 349 362 0.0072093 
r71 490 349 0.0566038 
r72 322 326 0.0072093 
r73 489 322 0.0566038 
r74 298 302 0.0072093 
r75 437 298 0.0566038 
r76 274 278 0.0072093 
r77 436 274 0.0566038 
r78 250 254 0.0072093 
r79 435 250 0.0566038 
r80 230 233 0.0022831 
r81 454 230 0.0375475 
r82 230 496 0.00547945 
r83 452 229 0.00210084 
r84 227 229 0.000537705 
r85 448 227 0.00210084 
r86 229 218 0.0105115 
r87 453 218 0.00712251 
r88 214 233 0.0187738 
r89 218 214 0.00376393 
r90 454 214 0.00712251 
r91 212 227 0.0142754 
r92 446 212 0.00356125 
r93 499 197 0.345778 
r94 196 505 0.0220132 
r95 196 197 0.319822 
r96 190 177 0.00249413 
r97 197 177 0.0425532 
r98 173 190 0.00249413 
r99 197 173 0.0425532 
r100 499 168 0.345778 
r101 167 507 0.0220132 
r102 167 168 0.319822 
r103 161 148 0.00249413 
r104 168 148 0.0425532 
r105 144 161 0.00249413 
r106 168 144 0.0425532 
r107 499 127 0.345778 
r108 126 502 0.0220132 
r109 126 127 0.319822 
r110 120 107 0.00249413 
r111 127 107 0.0425532 
r112 103 120 0.00249413 
r113 127 103 0.0425532 
r114 499 98 0.345778 
r115 97 504 0.0220132 
r116 97 98 0.319822 
r117 91 78 0.00249413 
r118 98 78 0.0425532 
r119 74 91 0.00249413 
r120 98 74 0.0425532 
r121 499 57 0.345778 
r122 56 500 0.0220132 
r123 56 57 0.319822 
r124 50 37 0.00249413 
r125 57 37 0.0425532 
r126 33 50 0.00249413 
r127 57 33 0.0425532 
r128 499 28 0.345778 
r129 27 501 0.0220132 
r130 27 28 0.319822 
r131 21 8 0.00249413 
r132 28 8 0.0425532 
r133 4 21 0.00249413 
r134 28 4 0.0425532 
.ends

.subckt PM_PC3D00%VSS 935 942 947 952 958 963 968 979 1078 1113 1177 1181 1194
+ 1201 1214 1222 1228
c0 1228 0 88.3559f
c1 1220 0 5.81105f
c2 1214 0 42.8407f
c3 1194 0 0.253232f
c4 1185 0 1.76668f
c5 1181 0 0.0756923f
c6 1177 0 27.3477f
c7 1143 0 76.9092f
c8 1137 0 2.83572f
c9 1110 0 1.85629f
c10 1103 0 14.9995f
c11 1093 0 21.0915f
c12 1085 0 6.76814f
c13 1075 0 1.46926f
c14 1016 0 7.54115f
c15 1015 0 0.0432851f
c16 1014 0 3.78953f
c17 1008 0 4.62764f
c18 1003 0 1.8243f
c19 1002 0 4.71246f
c20 979 0 10.886f
c21 975 0 0.204101f
c22 974 0 3.30252f
c23 973 0 2.00464f
c24 968 0 1.82333f
c25 967 0 5.32358f
c26 963 0 1.80352f
c27 958 0 1.80339f
c28 952 0 1.80111f
c29 947 0 1.80925f
c30 942 0 1.80594f
c31 935 0 1.83329f
c32 933 0 2.26279f
c33 931 0 8.91869f
c34 928 0 0.259688f
c35 761 0 0.184918f
c36 758 0 0.153038f
c37 756 0 0.222173f
c38 754 0 0.281838f
c39 750 0 0.354681f
c40 747 0 0.0913822f
c41 744 0 2.38787f
c42 667 0 0.162892f
c43 664 0 0.20106f
c44 639 0 2.94492f
c45 625 0 3.82318f
c46 622 0 0.161087f
c47 621 0 9.64636f
c48 606 0 5.8203f
c49 603 0 3.34295f
r50 1226 1228 0.000702051 
r51 1225 1226 0.0832563 
r52 1222 1225 0.000703354 
r53 1219 1220 1.25283 
r54 1211 1212 0.0237288 
r55 1210 1211 0.0906879 
r56 1209 1210 0.00921236 
r57 1208 1209 0.191027 
r58 1207 1208 0.0042672 
r59 1206 1207 0.0473779 
r60 1201 1204 0.00319043 
r61 1199 1210 0.0666667 
r62 1197 1208 0.0740741 
r63 1191 1194 0.04 
r64 1191 1212 2 
r65 1188 1209 0.0535714 
r66 1185 1188 0.6155 
r67 1179 1181 0.11088 
r68 1179 1220 0.12766 
r69 1181 1177 0.082649 
r70 1177 1179 0.0220246 
r71 1142 1143 1.0345 
r72 1185 1141 2.59036 
r73 1139 1185 0.967229 
r74 1137 1204 0.461538 
r75 1117 1214 0.00437886 
r76 1212 1117 0.0865404 
r77 1115 1117 0.428571 
r78 1113 1115 0.189 
r79 1110 1113 0.013 
r80 1110 1226 0.131579 
r81 1106 1107 1.69381 
r82 1103 1106 0.628223 
r83 1103 1211 0.3 
r84 1097 1219 1.2 
r85 1097 1100 0.306514 
r86 1096 1097 0.647086 
r87 1093 1096 0.362286 
r88 1093 1207 0.3 
r89 1090 1219 0.537358 
r90 1088 1090 3 
r91 1085 1088 3.10862 
r92 1085 1206 0.6 
r93 1082 1206 0.0568295 
r94 1204 1082 0.00119641 
r95 1080 1082 0.428571 
r96 1078 1080 0.189 
r97 1075 1078 0.013 
r98 1075 1225 0.131579 
r99 1016 1143 2.6035 
r100 1014 1188 1.2555 
r101 1014 1015 0.0338756 
r102 1009 1015 0.0338756 
r103 1008 1011 0.0446983 
r104 1008 1009 1.2745 
r105 1005 1185 0.9495 
r106 1004 1015 0.00880368 
r107 1004 1185 0.9945 
r108 1002 1199 0.072412 
r109 1002 1003 0.5605 
r110 1002 979 0.0582667 
r111 975 979 0.4585 
r112 974 1003 0.0446983 
r113 974 979 0.4715 
r114 973 975 0.0446983 
r115 1002 973 0.5605 
r116 967 1197 0.0572326 
r117 967 968 0.3592 
r118 967 963 0.3592 
r119 967 958 0.3592 
r120 967 952 0.3592 
r121 967 947 0.3592 
r122 967 942 0.3592 
r123 967 935 0.3592 
r124 933 1010 1.2745 
r125 931 1141 1.08482 
r126 928 1139 1.17157 
r127 926 1137 1.518 
r128 1142 761 3 
r129 1005 758 0.00880368 
r130 1016 758 0.0338756 
r131 1010 758 0.0338756 
r132 758 1070 3 
r133 1070 756 0.000888889 
r134 1106 756 3 
r135 754 1141 3 
r136 1107 754 3 
r137 752 761 0.0005 
r138 1096 752 3 
r139 750 1139 3 
r140 1100 750 3 
r141 747 1142 1.3475 
r142 926 747 0.0446983 
r143 744 1011 1.944 
r144 744 933 0.0446983 
r145 666 667 0.147619 
r146 663 664 0.149398 
r147 931 663 0.0385542 
r148 660 662 0.143333 
r149 928 659 0.0385542 
r150 657 659 0.14506 
r151 1185 656 0.159 
r152 639 1185 0.159 
r153 638 667 0.02 
r154 638 656 1.247 
r155 637 664 0.02 
r156 637 639 1.243 
r157 1185 636 0.192 
r158 634 1185 0.192 
r159 633 634 0.342 
r160 1185 633 0.192 
r161 631 1185 0.192 
r162 630 631 0.342 
r163 1185 630 0.192 
r164 628 1185 0.192 
r165 627 628 0.342 
r166 1185 627 0.192 
r167 625 1185 0.192 
r168 624 666 0.02 
r169 624 636 1.214 
r170 623 663 0.02 
r171 623 625 1.21 
r172 622 662 0.0380952 
r173 621 666 0.0380952 
r174 621 622 5.74476 
r175 1185 617 0.159 
r176 615 1185 0.159 
r177 614 615 0.408 
r178 1185 614 0.159 
r179 612 1185 0.159 
r180 611 612 0.408 
r181 1185 611 0.159 
r182 609 1185 0.159 
r183 608 609 0.408 
r184 1185 608 0.159 
r185 606 1185 0.159 
r186 605 662 0.02 
r187 605 617 1.247 
r188 604 659 0.02 
r189 604 606 1.243 
r190 603 660 0.02 
r191 602 657 0.02 
r192 602 603 4.69271 
.ends

.subckt PM_PC3D00%U18_U82_gate 29 35
c0 74 0 2.7066f
c1 70 0 1.70911f
c2 64 0 1.00407f
c3 60 0 1.17045f
c4 50 0 3.04943f
c5 47 0 15.5355f
c6 42 0 1.07012f
c7 36 0 0.0736527f
c8 35 0 0.293973f
c9 29 0 3.62282f
c10 1 0 0.129548f
r11 67 74 6 
r12 64 67 0.0744828 
r13 60 78 0.815333 
r14 58 60 6 
r15 55 74 1.13063 
r16 53 55 6 
r17 50 53 2.082 
r18 50 78 6 
r19 58 47 13.8371 
r20 45 47 6 
r21 42 45 1.29171 
r22 42 70 6 
r23 40 70 2.18439 
r24 36 40 0.0492189 
r25 36 35 0.101111 
r26 2 64 2.44118 
r27 1 29 229.95 
r28 1 2 4.2601 
.ends

.subckt PM_PC3D00%U18_U74$11_gate 102 107 223 228 344 349 414 419 424 429 434
+ 440 475
c0 568 0 13.2585f
c1 560 0 0.69601f
c2 549 0 0.435061f
c3 547 0 1.06365f
c4 544 0 0.43269f
c5 542 0 0.616768f
c6 541 0 0.584364f
c7 539 0 0.421316f
c8 536 0 0.59377f
c9 534 0 0.420092f
c10 531 0 0.589054f
c11 529 0 0.420496f
c12 526 0 0.040921f
c13 525 0 0.0516269f
c14 523 0 0.261983f
c15 521 0 0.294662f
c16 518 0 0.573512f
c17 514 0 0.804355f
c18 512 0 0.79724f
c19 510 0 0.802735f
c20 508 0 5.58738f
c21 506 0 0.898807f
c22 505 0 0.0981713f
c23 504 0 8.86684f
c24 502 0 0.220443f
c25 500 0 5.73158f
c26 498 0 0.0755722f
c27 496 0 0.0497852f
c28 494 0 0.253349f
c29 487 0 2.11674f
c30 485 0 0.589058f
c31 474 0 0.498907f
c32 469 0 0.530963f
c33 461 0 0.530599f
c34 452 0 0.294936f
c35 446 0 0.170105f
c36 445 0 0.605354f
c37 444 0 0.167421f
c38 443 0 0.604642f
c39 442 0 0.166968f
c40 441 0 0.535403f
c41 440 0 3.11055f
c42 434 0 3.05264f
c43 429 0 3.05264f
c44 424 0 3.05264f
c45 419 0 3.05264f
c46 414 0 3.11013f
c47 358 0 0.965147f
c48 349 0 3.05264f
c49 348 0 0.166577f
c50 344 0 3.05264f
c51 343 0 0.167364f
c52 254 0 0.273221f
c53 237 0 0.96507f
c54 228 0 3.05264f
c55 227 0 0.166562f
c56 223 0 3.05264f
c57 222 0 0.167667f
c58 116 0 0.964865f
c59 107 0 3.05264f
c60 106 0 0.166737f
c61 102 0 3.05264f
c62 101 0 0.166994f
r63 565 568 14.644 
r64 595 549 0.0546341 
r65 547 549 1.5 
r66 547 551 0.0730579 
r67 591 544 0.0546341 
r68 542 544 1.5 
r69 587 539 0.0546341 
r70 537 539 1.5 
r71 537 541 0.0969963 
r72 583 534 0.0546341 
r73 532 534 1.5 
r74 532 536 0.100293 
r75 579 529 0.0546341 
r76 527 529 1.5 
r77 527 531 0.0989744 
r78 575 523 0.0668293 
r79 521 523 3 
r80 519 521 0.0835294 
r81 516 518 0.113128 
r82 542 514 0.124736 
r83 514 541 1.41 
r84 537 512 0.124689 
r85 512 536 1.395 
r86 532 510 0.12359 
r87 510 531 1.406 
r88 509 526 0.0239505 
r89 508 551 0.02 
r90 508 509 9.131 
r91 507 525 0.0227547 
r92 527 506 0.12381 
r93 506 507 1.586 
r94 504 518 0.0656112 
r95 504 505 11.03 
r96 565 502 6 
r97 500 502 6 
r98 499 526 0.0196627 
r99 499 500 3.21707 
r100 498 526 0.0196627 
r101 497 525 0.0205405 
r102 497 498 0.0648649 
r103 496 525 0.0205405 
r104 495 519 0.02 
r105 495 496 0.0588235 
r106 494 519 0.02 
r107 493 505 0.0487211 
r108 493 494 0.18 
r109 490 568 6 
r110 485 487 6 
r111 485 490 0.91871 
r112 484 487 3.62492 
r113 480 560 0.000961367 
r114 474 484 0.0556028 
r115 474 475 0.132432 
r116 446 560 1.85294 
r117 445 469 5.05882 
r118 444 469 5.05882 
r119 443 461 5.05882 
r120 442 461 5.05882 
r121 441 452 1.85294 
r122 436 446 3.88985 
r123 436 440 183.96 
r124 431 445 3.88985 
r125 431 434 183.96 
r126 426 444 3.88985 
r127 426 429 183.96 
r128 421 443 3.88985 
r129 421 424 183.96 
r130 416 442 3.88985 
r131 416 419 183.96 
r132 411 441 3.88985 
r133 411 414 183.96 
r134 354 358 5.05882 
r135 353 358 5.05882 
r136 348 354 3.88985 
r137 348 349 183.96 
r138 343 353 3.88985 
r139 343 344 183.96 
r140 469 302 0.000961367 
r141 544 302 3 
r142 358 291 0.000866495 
r143 595 291 3 
r144 358 266 0.0295965 
r145 549 266 3 
r146 516 254 3 
r147 254 480 3 
r148 233 237 5.05882 
r149 232 237 5.05882 
r150 227 233 3.88985 
r151 227 228 183.96 
r152 222 232 3.88985 
r153 222 223 183.96 
r154 461 181 0.000961367 
r155 534 181 3 
r156 237 170 0.000866495 
r157 587 170 3 
r158 237 145 0.0295965 
r159 539 145 3 
r160 134 469 0.0295669 
r161 591 134 3 
r162 112 116 5.05882 
r163 111 116 5.05882 
r164 106 112 3.88985 
r165 106 107 183.96 
r166 101 111 3.88985 
r167 101 102 183.96 
r168 452 60 0.000961367 
r169 575 60 3 
r170 116 49 0.000866495 
r171 579 49 3 
r172 116 24 0.0295965 
r173 529 24 3 
r174 13 461 0.0295669 
r175 583 13 3 
.ends

.subckt PM_PC3D00%U18_U79$3_gate 22 41 72 91 122 141 172 191 301 303 305 308
+ 338
c0 476 0 0.321525f
c1 467 0 0.697287f
c2 460 0 0.312884f
c3 458 0 0.312884f
c4 457 0 0.312884f
c5 455 0 0.312884f
c6 454 0 0.295539f
c7 452 0 0.313275f
c8 451 0 0.312884f
c9 449 0 0.312884f
c10 448 0 0.387081f
c11 445 0 7.49512f
c12 437 0 0.305151f
c13 435 0 0.305151f
c14 434 0 0.305151f
c15 432 0 0.305151f
c16 431 0 0.28985f
c17 429 0 0.305542f
c18 428 0 0.306734f
c19 426 0 0.307749f
c20 425 0 0.365364f
c21 422 0 6.88452f
c22 418 0 15.6941f
c23 407 0 0.826832f
c24 405 0 6.68779f
c25 399 0 0.311756f
c26 397 0 5.76612f
c27 395 0 15.8287f
c28 394 0 0.0681979f
c29 390 0 2.14886f
c30 388 0 0.798544f
c31 386 0 0.772959f
c32 383 0 0.293486f
c33 364 0 7.00197f
c34 363 0 0.0713017f
c35 344 0 7.16957f
c36 343 0 0.0757387f
c37 338 0 0.232507f
c38 337 0 0.110636f
c39 336 0 0.0598776f
c40 335 0 0.0677364f
c41 299 0 5.09464f
c42 295 0 0.401786f
c43 290 0 4.80674f
c44 289 0 0.374023f
c45 283 0 0.391118f
c46 277 0 0.366076f
c47 227 0 4.92714f
c48 225 0 5.21905f
c49 223 0 0.107369f
c50 221 0 0.130097f
c51 176 0 4.91307f
c52 174 0 0.105999f
c53 157 0 4.91307f
c54 155 0 0.105999f
c55 126 0 4.91307f
c56 124 0 0.105999f
c57 107 0 4.91539f
c58 105 0 0.106492f
c59 76 0 4.86788f
c60 74 0 0.105999f
c61 57 0 4.90218f
c62 55 0 0.105999f
c63 26 0 4.9074f
c64 24 0 0.105999f
c65 7 0 4.91666f
c66 5 0 0.105999f
r67 474 476 0.0689474 
r68 461 462 0.16439 
r69 460 461 0.32439 
r70 459 460 0.219512 
r71 458 459 0.16039 
r72 457 458 0.32839 
r73 454 455 0.32839 
r74 451 452 0.32839 
r75 448 449 0.32839 
r76 438 439 0.164878 
r77 437 438 0.323902 
r78 436 437 0.219512 
r79 435 436 0.160878 
r80 434 435 0.327902 
r81 431 432 0.327902 
r82 428 429 0.327902 
r83 425 426 0.327902 
r84 415 418 14.1747 
r85 410 474 6 
r86 418 407 6 
r87 405 407 6 
r88 405 410 4.23097 
r89 402 467 6 
r90 415 399 6 
r91 397 399 6 
r92 397 402 5.18 
r93 394 407 1.007 
r94 394 395 0.032162 
r95 393 467 0.462951 
r96 388 390 6 
r97 387 388 1.30323 
r98 385 476 0.02 
r99 385 386 0.56129 
r100 384 395 0.0151954 
r101 383 387 0.0513297 
r102 383 384 0.136585 
r103 380 462 6 
r104 376 459 6 
r105 376 380 0.708293 
r106 375 457 0.18439 
r107 455 375 0.195512 
r108 373 375 6 
r109 373 376 0.673171 
r110 372 454 0.18439 
r111 452 372 0.195512 
r112 370 372 6 
r113 370 373 0.708293 
r114 369 451 0.18439 
r115 449 369 0.195512 
r116 367 369 6 
r117 367 370 0.708293 
r118 366 448 0.18439 
r119 445 366 0.172195 
r120 364 366 6 
r121 364 367 0.708293 
r122 363 386 0.0424736 
r123 363 364 0.21561 
r124 360 439 6 
r125 356 436 6 
r126 356 360 0.708293 
r127 355 434 0.219512 
r128 432 355 0.160878 
r129 353 355 6 
r130 353 356 0.708293 
r131 352 431 0.219512 
r132 429 352 0.160878 
r133 350 352 6 
r134 350 353 0.708293 
r135 349 428 0.219512 
r136 426 349 0.160878 
r137 347 349 6 
r138 347 350 0.708293 
r139 346 425 0.219512 
r140 422 346 0.130732 
r141 344 346 6 
r142 344 347 0.708293 
r143 343 393 0.0454172 
r144 343 344 0.21561 
r145 341 390 3.62194 
r146 337 338 0.0627027 
r147 336 341 0.0468191 
r148 337 335 0.0917881 
r149 335 336 0.0817582 
r150 299 308 394.95 
r151 298 299 1.5 
r152 462 295 0.219512 
r153 295 298 2.81176 
r154 290 305 394.95 
r155 289 461 2.74706 
r156 289 290 1.5 
r157 287 308 394.95 
r158 286 287 1.5 
r159 439 283 0.219512 
r160 283 286 2.78235 
r161 278 305 394.95 
r162 277 438 2.74706 
r163 277 278 1.5 
r164 228 448 2.66471 
r165 227 303 394.95 
r166 227 228 4.2601 
r167 226 445 3.21765 
r168 225 301 394.95 
r169 225 226 4.2601 
r170 224 425 2.67647 
r171 223 303 394.95 
r172 223 224 4.2601 
r173 222 422 3.29412 
r174 221 301 394.95 
r175 221 222 4.2601 
r176 177 460 2.07647 
r177 176 191 394.95 
r178 176 177 4.2601 
r179 175 437 2.07647 
r180 174 191 394.95 
r181 174 175 4.2601 
r182 158 458 2.07647 
r183 157 172 394.95 
r184 157 158 4.2601 
r185 156 435 2.07647 
r186 155 172 394.95 
r187 155 156 4.2601 
r188 127 457 2.07647 
r189 126 141 394.95 
r190 126 127 4.2601 
r191 125 434 2.07647 
r192 124 141 394.95 
r193 124 125 4.2601 
r194 108 455 2.07647 
r195 107 122 394.95 
r196 107 108 4.2601 
r197 106 432 2.07647 
r198 105 122 394.95 
r199 105 106 4.2601 
r200 77 454 2.07647 
r201 76 91 394.95 
r202 76 77 4.2601 
r203 75 431 2.07647 
r204 74 91 394.95 
r205 74 75 4.2601 
r206 58 452 2.07647 
r207 57 72 394.95 
r208 57 58 4.2601 
r209 56 429 2.07647 
r210 55 72 394.95 
r211 55 56 4.2601 
r212 27 451 2.07647 
r213 26 41 394.95 
r214 26 27 4.2601 
r215 25 428 2.07647 
r216 24 41 394.95 
r217 24 25 4.2601 
r218 8 449 2.07647 
r219 7 22 394.95 
r220 7 8 4.2601 
r221 6 426 2.07647 
r222 5 22 394.95 
r223 5 6 4.2601 
.ends

.subckt PM_PC3D00%VDDO 813 826 833 840 847 854 861 868 1051 1090 1094 1097 1102
+ 1109 1116 1137 1165 1176 1184 1230 1237 1267 1272
c0 1272 0 21.1278f
c1 1264 0 4.62327f
c2 1240 0 6.88076f
c3 1237 0 42.7642f
c4 1227 0 2.87356f
c5 1188 0 3.58408f
c6 1173 0 0.503257f
c7 1169 0 29.3882f
c8 1168 0 1.97703f
c9 1165 0 58.7321f
c10 1164 0 1.62375f
c11 1136 0 6.83032f
c12 1128 0 7.11486f
c13 1115 0 50.3484f
c14 1106 0 0.701867f
c15 1104 0 1.30599f
c16 1102 0 3.3406f
c17 1094 0 2.4867f
c18 1074 0 0.718369f
c19 1072 0 0.277456f
c20 1050 0 0.374545f
c21 1047 0 9.36818f
c22 939 0 11.1962f
c23 931 0 0.0552373f
c24 929 0 0.202622f
c25 927 0 0.352027f
c26 925 0 0.353317f
c27 923 0 0.153972f
c28 920 0 7.33213f
c29 919 0 8.76487f
c30 916 0 0.0953484f
c31 873 0 7.08157f
c32 805 0 7.88946f
c33 794 0 11.8503f
c34 792 0 19.5263f
c35 790 0 18.9023f
c36 788 0 18.8975f
c37 786 0 18.8566f
c38 784 0 18.8566f
c39 782 0 11.2324f
c40 758 0 0.222836f
c41 757 0 7.73789f
c42 754 0 0.106001f
c43 753 0 6.13065f
c44 24 0 9.0902f
c45 21 0 0.0999664f
c46 20 0 4.92636f
c47 11 0 0.0999664f
c48 10 0 4.97634f
r49 1264 1265 0.942056 
r50 1257 1258 0.279231 
r51 1256 1257 0.2665 
r52 1247 1248 0.273962 
r53 1246 1247 0.261472 
r54 1240 1241 0.997383 
r55 1234 1235 0.556863 
r56 1229 1237 0.00304139 
r57 1235 1229 0.00174292 
r58 1227 1229 0.461538 
r59 1190 1234 0.00174292 
r60 1230 1190 0.00305011 
r61 1188 1190 0.461538 
r62 1184 1264 0.24 
r63 1180 1272 0.0039415 
r64 1178 1180 0.5 
r65 1176 1178 0.181 
r66 1173 1176 0.17 
r67 1173 1235 1.5 
r68 1170 1171 0.5453 
r69 1169 1170 0.229 
r70 1168 1184 0.0539366 
r71 1168 1171 0.0969 
r72 1265 1164 0.648972 
r73 1162 1164 0.181818 
r74 1162 1165 0.0134407 
r75 1258 1161 0.279231 
r76 1161 1159 0.279231 
r77 1159 1157 0.279231 
r78 1157 1155 0.266538 
r79 1153 1155 1.5 
r80 1153 1157 1.5 
r81 1153 1159 1.5 
r82 1153 1161 1.5 
r83 1153 1162 0.0317012 
r84 1248 1151 0.273962 
r85 1151 1149 0.273962 
r86 1149 1147 0.273962 
r87 1147 1145 0.261509 
r88 1143 1145 1.5 
r89 1143 1147 1.5 
r90 1143 1149 1.5 
r91 1143 1151 1.5 
r92 1241 1142 0.695327 
r93 1140 1142 0.171429 
r94 1140 1143 0.0334274 
r95 1137 1140 0.01361 
r96 1136 1256 3.84615e-05 
r97 1131 1257 1.5 
r98 1131 1136 1.5 
r99 1131 1258 1.5 
r100 1129 1131 0.0694058 
r101 1128 1246 3.77358e-05 
r102 1123 1247 1.5 
r103 1123 1128 1.5 
r104 1123 1129 0.0805639 
r105 1123 1248 1.5 
r106 1119 1240 0.2 
r107 1119 1123 0.0406042 
r108 1116 1119 0.0164753 
r109 1115 1184 0.0234268 
r110 1115 1131 0.0330312 
r111 1113 1180 0.467422 
r112 1267 1113 0.00394881 
r113 1111 1113 0.5 
r114 1109 1111 0.181 
r115 1106 1109 0.17 
r116 1106 1234 1.5 
r117 1104 1169 0.5148 
r118 1100 1102 0.0526456 
r119 1097 1100 0.0552365 
r120 1077 1221 6 
r121 1072 1074 6 
r122 1072 1077 0.4096 
r123 1218 1070 0.165 
r124 1054 1074 0.7088 
r125 1050 1054 0.0466151 
r126 1050 1051 0.0311111 
r127 1047 1070 0.16 
r128 1045 1218 0.339 
r129 1221 939 0.205161 
r130 937 941 1.2 
r131 934 1057 1.2 
r132 931 934 2.881 
r133 929 1070 2 
r134 1104 928 0.052332 
r135 928 929 2 
r136 1057 927 0.00051282 
r137 1170 927 1.2 
r138 941 925 0.000493827 
r139 1171 925 1.2 
r140 939 923 6 
r141 1169 923 6 
r142 920 937 0.243951 
r143 919 934 0.247 
r144 916 931 3.212 
r145 915 1227 0.526 
r146 915 920 0.0447005 
r147 914 1227 2.122 
r148 914 919 0.0446983 
r149 912 1188 2.122 
r150 912 916 0.0446983 
r151 816 813 0.159252 
r152 813 823 0.159252 
r153 873 813 0.159252 
r154 813 891 0.159252 
r155 813 883 0.11215 
r156 805 813 0.159252 
r157 796 813 0.134579 
r158 883 796 0.0246729 
r159 1265 796 0.109091 
r160 826 794 0.793846 
r161 1256 794 1.5 
r162 833 792 0.55145 
r163 1257 792 1.5 
r164 840 790 0.55145 
r165 1258 790 1.5 
r166 847 788 0.55145 
r167 1161 788 1.5 
r168 854 786 0.55145 
r169 1159 786 1.5 
r170 861 784 0.55145 
r171 1157 784 1.5 
r172 868 782 0.793846 
r173 1155 782 1.5 
r174 780 826 0.842637 
r175 1246 780 1.5 
r176 778 833 0.585344 
r177 1247 778 1.5 
r178 776 840 0.585344 
r179 1248 776 1.5 
r180 774 847 0.585344 
r181 1151 774 1.5 
r182 772 854 0.585344 
r183 1149 772 1.5 
r184 770 861 0.585344 
r185 1147 770 1.5 
r186 768 868 0.842637 
r187 1145 768 1.5 
r188 766 816 0.0149533 
r189 813 766 0.0971963 
r190 1241 766 0.0923077 
r191 764 891 0.73271 
r192 763 873 0.737944 
r193 762 823 0.73271 
r194 761 805 0.737944 
r195 758 762 0.0451326 
r196 758 813 2.504 
r197 757 764 0.0451326 
r198 757 813 2.44889 
r199 754 761 0.045921 
r200 754 813 2.687 
r201 753 763 0.045921 
r202 753 813 2.885 
r203 390 1153 0.0601494 
r204 1143 390 0.0634357 
r205 390 1100 0.00227273 
r206 389 1094 0.0620926 
r207 1090 389 0.0688218 
r208 1129 389 0.0025 
r209 1047 21 0.0447743 
r210 21 1218 1.85395 
r211 20 24 0.0447743 
r212 20 1218 1.84558 
r213 14 24 6.328 
r214 1045 11 0.0447743 
r215 11 1218 1.85395 
r216 10 14 0.0447743 
r217 10 1218 1.84558 
.ends

.subckt PM_PC3D00%VSSO 171 334 497 856 882 887 892 897 902 907 912 935 939 946
+ 980 987 994 1021 1023 1029 1038 1044 1056 1073 1082 1123 1129
c0 1129 0 31.1291f
c1 1117 0 6.36805f
c2 1111 0 6.38394f
c3 1105 0 6.37344f
c4 1099 0 6.37328f
c5 1093 0 6.37401f
c6 1085 0 7.43879f
c7 1082 0 39.0358f
c8 1071 0 5.35844f
c9 1056 0 0.00201867f
c10 1053 0 7.48908f
c11 1051 0 8.91545f
c12 1044 0 0.305752f
c13 1023 0 0.00288449f
c14 1021 0 8.25608e-19
c15 1019 0 9.00098f
c16 993 0 1.38341f
c17 983 0 1.66515f
c18 980 0 59.2787f
c19 954 0 5.47679f
c20 942 0 1.2819f
c21 939 0 10.8179f
c22 923 0 0.71127f
c23 922 0 3.2109f
c24 920 0 0.385966f
c25 919 0 0.745822f
c26 918 0 0.293984f
c27 917 0 3.18279f
c28 916 0 0.387722f
c29 912 0 1.77036f
c30 907 0 1.74851f
c31 902 0 1.74851f
c32 897 0 1.74851f
c33 892 0 1.74851f
c34 887 0 1.74851f
c35 882 0 1.76831f
c36 880 0 11.2023f
c37 856 0 10.604f
c38 852 0 0.432584f
c39 851 0 4.45775f
c40 821 0 0.123501f
c41 820 0 8.90573f
c42 788 0 0.275336f
c43 784 0 7.03744f
c44 782 0 0.146306f
c45 412 0 14.0034f
c46 362 0 13.9986f
c47 249 0 14.0033f
c48 199 0 14.0035f
c49 36 0 14.0038f
c50 14 0 0.146306f
r51 1127 1129 0.00282778 
r52 1126 1127 0.355444 
r53 1123 1126 0.00283333 
r54 1116 1117 0.00151895 
r55 1115 1116 0.00151344 
r56 1110 1111 0.0015162 
r57 1109 1110 0.0015162 
r58 1104 1105 0.00151895 
r59 1103 1104 0.00151344 
r60 1098 1099 0.0015162 
r61 1097 1098 0.0015162 
r62 1092 1093 0.00151895 
r63 1091 1092 0.00151344 
r64 1079 1080 0.197914 
r65 1078 1079 0.270053 
r66 1077 1078 0.123262 
r67 1070 1071 0.0899598 
r68 1069 1070 0.0899598 
r69 1067 1069 0.0806426 
r70 1067 1079 0.0714286 
r71 1065 1067 0.00931727 
r72 1064 1065 0.0899598 
r73 1063 1064 0.0899598 
r74 1061 1063 0.0899598 
r75 1059 1078 0.0714286 
r76 1055 1056 0.00130233 
r77 1053 1120 0.0027907 
r78 1051 1053 0.0645161 
r79 1048 1080 2 
r80 1044 1048 0.000571429 
r81 1038 1110 0.133333 
r82 1029 1098 0.133333 
r83 1021 1055 0.0249302 
r84 1051 1021 0.000930233 
r85 1019 1021 0.000900901 
r86 1019 1085 0.0645161 
r87 993 996 0.0131449 
r88 993 994 0.02 
r89 990 1127 0.357143 
r90 987 990 0.21 
r91 985 1082 0.00544385 
r92 1080 985 0.0751872 
r93 983 985 1 
r94 983 987 0.445 
r95 977 1120 0.0344828 
r96 977 980 0.0135402 
r97 976 1115 0.00170917 
r98 974 976 0.0285714 
r99 974 977 0.0242129 
r100 973 1109 0.00170917 
r101 971 973 0.0285714 
r102 971 974 0.0242129 
r103 970 971 0.0219814 
r104 969 1103 0.00170917 
r105 967 969 0.0285714 
r106 967 970 0.00223148 
r107 966 1097 0.00170917 
r108 964 966 0.0285714 
r109 964 967 0.0242129 
r110 963 1091 0.00170917 
r111 961 963 0.0285714 
r112 961 964 0.0242129 
r113 960 1087 0.0223423 
r114 1085 960 0.0027027 
r115 958 960 0.0344828 
r116 958 961 0.0212119 
r117 957 996 0.02 
r118 957 958 0.00364219 
r119 954 1077 0.6 
r120 996 952 0.475382 
r121 952 954 2.21804 
r122 949 1126 0.357143 
r123 946 949 0.21 
r124 944 1077 0.017861 
r125 1073 944 0.00545455 
r126 942 944 1 
r127 942 946 0.445 
r128 925 1056 0.234047 
r129 923 1051 0.213767 
r130 921 1023 0.225405 
r131 921 922 0.0870145 
r132 919 1019 0.205766 
r133 919 920 0.0870145 
r134 925 917 0.0854704 
r135 917 918 0.132033 
r136 923 916 0.0854704 
r137 911 1071 0.02 
r138 911 912 0.316 
r139 906 1070 0.02 
r140 906 907 0.316 
r141 901 1069 0.02 
r142 901 902 0.316 
r143 896 1065 0.02 
r144 896 897 0.316 
r145 891 1064 0.02 
r146 891 892 0.316 
r147 886 1063 0.02 
r148 886 887 0.316 
r149 881 1061 0.02 
r150 881 882 0.316 
r151 880 1059 0.0419399 
r152 879 880 0.5605 
r153 880 856 0.0510667 
r154 852 856 0.4715 
r155 851 879 0.0446983 
r156 851 856 0.4585 
r157 821 1021 0.134 
r158 820 918 0.0473573 
r159 820 1021 0.12 
r160 789 852 0.0446983 
r161 789 880 0.5605 
r162 788 821 0.0473573 
r163 922 788 0.132033 
r164 784 1021 0.12 
r165 783 1021 0.134 
r166 782 783 0.0473573 
r167 782 920 0.250407 
r168 583 939 0.0419737 
r169 935 583 0.0413851 
r170 970 583 0.00128205 
r171 1116 497 0.133333 
r172 1038 412 0.00147503 
r173 1111 412 0.0666667 
r174 497 402 0.00147234 
r175 1115 402 0.0666667 
r176 362 497 0.00147771 
r177 1117 362 0.0666667 
r178 1120 351 0.0230698 
r179 351 1055 0.0666667 
r180 1104 334 0.133333 
r181 1029 249 0.00147503 
r182 1099 249 0.0666667 
r183 334 239 0.00147234 
r184 1103 239 0.0666667 
r185 199 334 0.00147771 
r186 1105 199 0.0666667 
r187 189 1038 0.00147503 
r188 1109 189 0.0666667 
r189 1092 171 0.133333 
r190 86 1023 0.00126126 
r191 1021 86 0.0241441 
r192 1087 86 0.0666667 
r193 171 76 0.00147234 
r194 1091 76 0.0666667 
r195 36 171 0.00147771 
r196 1093 36 0.0666667 
r197 26 1029 0.00147503 
r198 1097 26 0.0666667 
r199 14 916 0.250407 
r200 14 784 0.0473573 
.ends

.subckt PM_PC3D00%VDD 1 27 37 44 53 59
c0 59 0 96.0076f
c1 44 0 62.0236f
c2 42 0 7.76178f
c3 41 0 8.86734f
c4 27 0 2.98525f
c5 1 0 2.03457f
r6 57 59 0.00069414 
r7 56 57 0.0823181 
r8 53 56 0.000695428 
r9 41 42 0.324517 
r10 35 44 0.00414572 
r11 42 35 0.0721311 
r12 33 35 0.6 
r13 31 33 0.141 
r14 31 57 0.0925926 
r15 27 31 0.062 
r16 9 41 0.0686339 
r17 37 9 0.00415301 
r18 7 9 0.6 
r19 5 7 0.141 
r20 5 56 0.0925926 
r21 1 5 0.062 
.ends

