* File: pc3d31d.dist.sp.pex
* Created: Sun Jul  4 12:34:21 2010
* Program "Calibre xRC"
* Version "v2008.4_19.14"
* Nominal Temperature: 27C
* Circuit Temperature: 27C
* 
.subckt PM_PC3D31D%net_m33_VDDO_res 8 39
c0 39 0 2.08261f
c1 34 0 1.33533f
c2 18 0 0.0832229f
c3 15 0 0.176808f
c4 10 0 0.0679009f
c5 9 0 0.651556f
c6 8 0 0.37158f
c7 6 0 0.185541f
r8 36 39 3.87662 
r9 17 34 43.5 
r10 16 34 49.5 
r11 18 15 16.5 
r12 11 18 4.13452 
r13 10 16 3.35237 
r14 9 15 3.35237 
r15 9 10 56.025 
r16 11 8 6.95493 
r17 7 36 1.62175 
r18 7 8 5.625 
r19 6 17 3.35237 
r20 6 8 5.625 
.ends

.subckt PM_PC3D31D%U14_padr 12 72 84 171 173 175 177 187 220
c0 305 0 15.9912f
c1 300 0 9.30082f
c2 293 0 1.94757f
c3 289 0 15.7632f
c4 281 0 5.32861f
c5 278 0 0.156426f
c6 275 0 5.64286f
c7 273 0 0.501133f
c8 271 0 0.0674659f
c9 270 0 0.207306f
c10 269 0 0.394066f
c11 264 0 0.707941f
c12 258 0 0.888811f
c13 255 0 0.100455f
c14 254 0 0.0294927f
c15 251 0 1.75059f
c16 241 0 2.33938f
c17 235 0 0.588664f
c18 232 0 0.428188f
c19 227 0 0.0767115f
c20 226 0 0.489946f
c21 223 0 0.664136f
c22 221 0 0.704359f
c23 220 0 5.5788e-21
c24 187 0 1.32606f
c25 185 0 16.0002f
c26 177 0 0.512788f
c27 175 0 0.879496f
c28 173 0 0.731856f
c29 171 0 0.810184f
c30 140 0 0.113509f
c31 136 0 0.218814f
c32 133 0 0.506462f
c33 128 0 0.416534f
c34 125 0 0.435871f
c35 122 0 0.232712f
c36 121 0 0.0423217f
c37 120 0 0.0207942f
c38 116 0 1.03163f
c39 114 0 0.0280501f
c40 113 0 0.0956877f
c41 112 0 0.406417f
c42 108 0 0.119966f
c43 106 0 0.576986f
c44 102 0 0.163762f
c45 101 0 0.0524723f
c46 100 0 0.0745688f
c47 98 0 0.08181f
c48 96 0 0.027902f
c49 95 0 0.11876f
c50 94 0 0.0385903f
c51 93 0 0.138292f
c52 90 0 0.245422f
c53 88 0 0.0328838f
c54 87 0 0.144749f
c55 84 0 1.40175f
c56 81 0 0.0421449f
c57 80 0 0.494404f
c58 79 0 0.0424881f
c59 78 0 0.544747f
c60 77 0 0.0421449f
c61 76 0 0.387555f
c62 72 0 1.81336f
c63 34 0 0.0820439f
c64 32 0 0.123577f
c65 29 0 0.0906731f
c66 19 0 0.104376f
c67 18 0 0.0302578f
c68 17 0 0.0479459f
c69 16 0 0.0834252f
c70 12 0 1.06198f
r71 305 291 0.172857 
r72 289 291 6 
r73 285 287 6.38667 
r74 281 305 2 
r75 279 281 10.3129 
r76 300 275 0.185079 
r77 273 275 1.2 
r78 272 273 0.482857 
r79 270 272 0.0446983 
r80 270 271 0.125714 
r81 269 271 0.0446983 
r82 264 293 6 
r83 262 278 0.15871 
r84 262 264 0.867097 
r85 260 289 1.888 
r86 287 260 6.70267 
r87 258 260 6 
r88 278 258 1.56387 
r89 254 255 0.0636735 
r90 250 254 0.0473078 
r91 234 293 2.38452 
r92 226 234 0.0446983 
r93 226 227 0.619355 
r94 223 227 0.0456388 
r95 222 232 0.0200258 
r96 222 223 0.791 
r97 221 300 0.18836 
r98 220 232 0.00412903 
r99 184 185 1.136 
r100 166 175 95.1667 
r101 149 171 95.6667 
r102 255 142 6 
r103 251 140 6 
r104 250 137 0.7375 
r105 251 137 2.8475 
r106 137 185 6 
r107 248 136 6 
r108 133 248 1.25 
r109 133 287 6 
r110 187 132 1.5325 
r111 241 132 6 
r112 129 244 0.7875 
r113 241 129 2.88 
r114 129 184 6 
r115 244 128 6 
r116 125 239 0.482667 
r117 125 285 6 
r118 124 184 5.42667 
r119 239 124 6 
r120 122 142 0.0650406 
r121 121 140 0.0305882 
r122 119 136 0.36 
r123 118 128 0.65375 
r124 117 187 1.3775 
r125 115 122 0.0502006 
r126 115 116 2.69091 
r127 113 116 0.0446983 
r128 113 114 0.0824242 
r129 111 112 2.316 
r130 108 166 1.6393 
r131 107 114 0.0446983 
r132 107 108 0.0981818 
r133 105 106 1.84267 
r134 101 102 0.156364 
r135 100 120 0.0383557 
r136 99 101 0.0486538 
r137 99 100 0.196923 
r138 98 121 0.0450655 
r139 97 120 0.0383557 
r140 97 98 0.206897 
r141 95 112 0.0446983 
r142 95 96 0.266667 
r143 94 119 0.0447588 
r144 93 111 0.0446983 
r145 93 94 0.266667 
r146 90 149 1.42502 
r147 89 96 0.0447588 
r148 89 90 0.36125 
r149 87 120 0.00526525 
r150 87 88 0.33 
r151 83 88 0.0446983 
r152 83 84 1.2575 
r153 82 84 1.3775 
r154 80 106 0.0446983 
r155 80 81 1.024 
r156 79 118 0.0447588 
r157 78 105 0.0446983 
r158 78 79 1.08267 
r159 77 117 0.0447588 
r160 76 82 0.0447588 
r161 76 77 0.544 
r162 71 81 0.0447588 
r163 71 72 2.20875 
r164 34 102 6.08333 
r165 33 34 1.52425 
r166 32 177 51.6667 
r167 32 33 6.00811 
r168 30 102 6.41667 
r169 29 30 1.5 
r170 28 173 80.8333 
r171 28 29 6.1393 
r172 235 21 0.30381 
r173 19 21 3 
r174 18 19 0.109474 
r175 279 17 0.0446983 
r176 18 16 0.0456991 
r177 16 17 0.147143 
r178 13 269 0.407619 
r179 13 235 0.0446983 
r180 221 12 0.0147368 
.ends

.subckt PM_PC3D31D%VSSO 167 330 493 562 570 624 630 635 935 939 946 975 982 994
+ 1006 1008 1016 1022 1026 1033 1043 1046 1052 1064 1108 1112 1118 1124
c0 1124 0 31.4605f
c1 1111 0 3.52185f
c2 1108 0 19.8771f
c3 1099 0 7.92036f
c4 1097 0 6.9617f
c5 1091 0 6.96195f
c6 1086 0 6.96199f
c7 1080 0 6.96197f
c8 1075 0 6.96025f
c9 1064 0 0.00200359f
c10 1059 0 8.95235f
c11 1052 0 0.319472f
c12 1046 0 0.327905f
c13 1043 0 1.23227e-19
c14 1040 0 0.778735f
c15 1026 0 1.39251f
c16 1022 0 1.41261f
c17 1011 0 1.96897f
c18 1008 0 0.00103801f
c19 1006 0 8.25608e-19
c20 1004 0 8.96457f
c21 992 0 7.8496f
c22 988 0 1.27875f
c23 978 0 1.65601f
c24 975 0 58.262f
c25 942 0 1.31273f
c26 939 0 10.6369f
c27 932 0 0.171527f
c28 930 0 0.191221f
c29 927 0 0.0212919f
c30 920 0 2.213f
c31 910 0 10.0054f
c32 909 0 2.54594f
c33 907 0 0.0574344f
c34 906 0 0.212005f
c35 904 0 0.086847f
c36 902 0 1.28262f
c37 901 0 0.0204193f
c38 898 0 0.0328226f
c39 896 0 0.107983f
c40 895 0 0.0484324f
c41 894 0 1.50948f
c42 891 0 2.70895f
c43 888 0 0.475243f
c44 887 0 0.0594287f
c45 886 0 0.293756f
c46 884 0 10.9177f
c47 883 0 0.725625f
c48 873 0 0.708327f
c49 871 0 3.2432f
c50 869 0 0.383003f
c51 868 0 0.713156f
c52 867 0 0.297488f
c53 866 0 3.26314f
c54 865 0 0.383249f
c55 864 0 0.0689962f
c56 863 0 0.351569f
c57 830 0 0.122915f
c58 829 0 8.7061f
c59 799 0 0.269574f
c60 795 0 7.03694f
c61 793 0 0.146306f
c62 639 0 0.094983f
c63 635 0 0.527752f
c64 630 0 0.00170037f
c65 624 0 0.572086f
c66 602 0 0.305014f
c67 600 0 3.07824f
c68 598 0 0.784796f
c69 596 0 0.0956278f
c70 594 0 0.0273444f
c71 592 0 0.237144f
c72 583 0 0.0210227f
c73 570 0 1.89712f
c74 562 0 0.564948f
c75 506 0 5.37124f
c76 408 0 14.0389f
c77 358 0 14.0381f
c78 245 0 14.039f
c79 195 0 14.0391f
c80 32 0 14.0364f
c81 10 0 0.146306f
r82 1122 1124 0.00282778 
r83 1121 1122 0.355444 
r84 1118 1121 0.00283333 
r85 1114 1115 0.0111317 
r86 1111 1114 0.0090538 
r87 1111 1112 0.02 
r88 1105 1106 0.132995 
r89 1104 1105 0.0710695 
r90 1103 1104 0.0248128 
r91 1068 1069 0.0140639 
r92 1063 1064 0.0126606 
r93 1099 1061 0.0113761 
r94 1059 1061 0.0638298 
r95 1056 1106 2 
r96 1052 1056 0.000761905 
r97 1046 1105 2 
r98 1040 1043 0.04 
r99 1040 1104 0.6 
r100 1006 1063 0.013211 
r101 1059 1006 0.000917431 
r102 1004 1006 0.000913242 
r103 1004 1068 0.0638298 
r104 993 994 0.02 
r105 992 1068 0.0113242 
r106 990 992 0.0327869 
r107 990 993 0.0178092 
r108 988 990 0.029258 
r109 985 1122 0.357143 
r110 982 985 0.21 
r111 980 1108 0.00544385 
r112 1106 980 0.0327273 
r113 978 980 1 
r114 978 982 0.445 
r115 973 975 0.00612761 
r116 973 1099 0.0327869 
r117 1093 971 0.00301483 
r118 971 1097 0.00301741 
r119 969 971 0.0266667 
r120 969 973 0.0287785 
r121 1033 968 0.130435 
r122 968 1091 0.00301741 
r123 1088 968 0.00301741 
r124 966 968 0.0266667 
r125 966 969 0.0242129 
r126 1082 965 0.00301483 
r127 965 1086 0.00301741 
r128 963 965 0.0266667 
r129 963 966 0.0242129 
r130 962 963 0.000615582 
r131 1016 961 0.130435 
r132 961 1080 0.00301741 
r133 1077 961 0.00301741 
r134 959 961 0.0266667 
r135 959 962 0.0235973 
r136 1071 958 0.00301483 
r137 958 1075 0.00301741 
r138 956 958 0.0266667 
r139 956 959 0.0242129 
r140 955 988 0.02 
r141 955 956 0.0277012 
r142 993 952 0.428315 
r143 949 1121 0.357143 
r144 946 949 0.21 
r145 944 1117 0.148897 
r146 1115 944 0.0151391 
r147 942 944 1 
r148 942 946 0.445 
r149 931 1103 0.051016 
r150 931 932 0.00169958 
r151 919 932 0.0880724 
r152 919 920 4.02 
r153 1026 917 0.445 
r154 915 917 0.75 
r155 915 918 0.0792513 
r156 1022 914 0.365 
r157 912 914 0.6 
r158 912 915 0.0219251 
r159 911 930 0.00185772 
r160 911 912 0.0203209 
r161 910 932 0.00169958 
r162 910 918 0.0168984 
r163 908 930 0.0857909 
r164 908 909 3.63314 
r165 906 909 0.0448303 
r166 906 907 0.199481 
r167 903 907 0.0447008 
r168 903 904 0.0831579 
r169 901 902 0.109474 
r170 901 898 0.0429996 
r171 898 927 0.0914286 
r172 895 896 0.135 
r173 894 895 0.0448391 
r174 893 894 2.75862 
r175 891 1011 6 
r176 888 927 0.0429996 
r177 888 891 0.0694737 
r178 886 893 0.044715 
r179 886 887 0.466667 
r180 885 1114 0.02 
r181 884 930 0.00185772 
r182 884 885 0.173904 
r183 883 887 0.0450432 
r184 1117 883 1.29371 
r185 875 1064 0.230275 
r186 873 1059 0.210275 
r187 872 1011 3.78429 
r188 870 1008 0.229041 
r189 870 871 0.0863581 
r190 868 1004 0.209132 
r191 868 869 0.0863581 
r192 875 866 0.0861375 
r193 866 867 0.132033 
r194 873 865 0.0861375 
r195 863 872 0.0446983 
r196 863 864 0.542857 
r197 860 864 0.0449572 
r198 830 1006 0.128 
r199 829 867 0.0473573 
r200 829 1006 0.126 
r201 799 830 0.0473573 
r202 871 799 0.132033 
r203 795 1006 0.126 
r204 794 1006 0.128 
r205 793 794 0.0473573 
r206 793 869 0.250407 
r207 602 635 0.0115789 
r208 1103 602 0.5 
r209 600 630 4.92 
r210 920 600 6 
r211 918 598 0.75 
r212 596 639 0.04 
r213 904 596 3 
r214 594 624 0.0494737 
r215 902 594 2 
r216 860 592 0.2775 
r217 896 592 6 
r218 583 598 0.437895 
r219 583 584 0.0407126 
r220 584 570 2.31765 
r221 639 562 0.340267 
r222 509 939 0.0419737 
r223 935 509 0.0413851 
r224 962 509 0.00128205 
r225 952 506 2.21804 
r226 506 1115 0.6 
r227 971 493 0.130435 
r228 1033 408 0.00313778 
r229 1091 408 0.0652174 
r230 493 398 0.0031351 
r231 1093 398 0.0652174 
r232 358 493 0.00314046 
r233 1097 358 0.0652174 
r234 1061 347 0.0141284 
r235 347 1063 0.0652174 
r236 965 330 0.130435 
r237 1016 245 0.00313778 
r238 1080 245 0.0652174 
r239 330 235 0.0031351 
r240 1082 235 0.0652174 
r241 195 330 0.00314046 
r242 1086 195 0.0652174 
r243 185 1033 0.00313778 
r244 1088 185 0.0652174 
r245 958 167 0.130435 
r246 82 1008 0.0126027 
r247 1006 82 0.0131507 
r248 1069 82 0.0652174 
r249 167 72 0.0031351 
r250 1071 72 0.0652174 
r251 32 167 0.00314046 
r252 1075 32 0.0652174 
r253 22 1016 0.00313778 
r254 1077 22 0.0652174 
r255 10 865 0.250407 
r256 10 795 0.0473573 
.ends

.subckt PM_PC3D31D%VSS 818 888 910 953 962 974 977 983
c0 983 0 88.6975f
c1 974 0 51.2511f
c2 961 0 55.0505f
c3 959 0 2.3768f
c4 953 0 4.46304e-19
c5 950 0 1.16693f
c6 927 0 2.39041f
c7 918 0 12.5125f
c8 917 0 1.77327f
c9 907 0 1.88751f
c10 899 0 15.712f
c11 885 0 1.45648f
c12 882 0 2.50412f
c13 846 0 25.3375f
c14 833 0 0.0691108f
c15 832 0 0.0657389f
c16 831 0 8.04225f
c17 830 0 0.745402f
c18 829 0 0.269279f
c19 826 0 0.0372194f
c20 818 0 2.47716f
c21 816 0 6.83023f
c22 815 0 0.218207f
c23 813 0 0.69473f
c24 806 0 8.5982f
c25 804 0 0.255493f
c26 803 0 0.0856199f
c27 802 0 1.18476f
c28 696 0 2.50909f
c29 688 0 0.439081f
c30 686 0 0.276005f
c31 684 0 0.271526f
c32 681 0 24.5337f
c33 676 0 1.0845f
c34 675 0 6.52093f
c35 674 0 0.192012f
c36 669 0 2.10084f
c37 666 0 1.61909f
c38 663 0 0.137097f
c39 662 0 2.46923f
c40 661 0 0.129413f
c41 660 0 0.382151f
c42 659 0 2.12137f
c43 573 0 0.162892f
c44 571 0 0.72248f
c45 569 0 0.203897f
c46 544 0 2.94311f
c47 530 0 3.05953f
c48 528 0 0.031054f
c49 524 0 6.24623f
c50 523 0 0.161087f
c51 508 0 5.68764f
c52 505 0 3.2536f
r53 981 983 0.000702051 
r54 980 981 0.0832563 
r55 977 980 0.000703354 
r56 973 974 0.00318245 
r57 970 971 0.0392024 
r58 969 970 0.127856 
r59 968 969 0.128574 
r60 967 968 0.0141176 
r61 966 967 0.00135593 
r62 959 973 0.461538 
r63 950 953 1.5675 
r64 950 970 1.5 
r65 947 969 0.0535714 
r66 927 966 0.6 
r67 925 961 0.0297924 
r68 925 927 3.23529 
r69 917 961 0.0158586 
r70 917 918 1.016 
r71 914 973 0.00119641 
r72 971 914 0.110269 
r73 912 914 0.428571 
r74 910 912 0.189 
r75 907 910 0.013 
r76 907 981 0.131579 
r77 903 904 1.13584 
r78 902 903 0.55797 
r79 899 902 0.628223 
r80 899 971 0.3 
r81 892 966 0.0882951 
r82 962 892 0.00438684 
r83 890 892 0.428571 
r84 888 890 0.189 
r85 885 888 0.013 
r86 885 980 0.131579 
r87 955 882 1 
r88 845 879 0.02 
r89 845 846 0.9662 
r90 831 947 2.7305 
r91 831 832 0.0338756 
r92 825 833 0.0338756 
r93 824 832 0.0338756 
r94 821 833 0.00880368 
r95 820 832 0.00880368 
r96 818 874 2.59036 
r97 955 818 1.07807 
r98 821 818 0.88 
r99 820 818 1.064 
r100 817 961 0.0158586 
r101 817 818 1.9975 
r102 816 833 0.0338756 
r103 829 815 0.0632911 
r104 815 813 0.0574488 
r105 812 826 0.0448201 
r106 809 959 1.518 
r107 808 959 0.426 
r108 806 874 1.08482 
r109 804 955 1.06072 
r110 803 918 0.056 
r111 802 803 0.0448201 
r112 802 812 2.13041 
r113 816 699 0.592 
r114 818 699 1.93 
r115 693 947 1.612 
r116 826 693 1.283 
r117 693 968 1.5 
r118 696 688 2 
r119 903 688 2 
r120 699 686 3 
r121 902 686 3 
r122 684 874 3 
r123 904 684 3 
r124 681 896 1.1314 
r125 681 967 0.125 
r126 680 882 0.0075 
r127 879 680 0.056 
r128 896 680 0.24 
r129 678 830 0.102486 
r130 678 829 0.0155975 
r131 846 678 1 
r132 676 825 0.6415 
r133 809 676 0.0446983 
r134 675 824 0.6415 
r135 808 675 0.0446983 
r136 673 696 0.319594 
r137 673 674 0.0100156 
r138 668 669 1.37048 
r139 667 674 0.065217 
r140 666 668 0.0447067 
r141 666 667 1.0122 
r142 663 664 0.678222 
r143 662 669 0.0447675 
r144 662 664 0.650667 
r145 660 674 0.065217 
r146 660 661 0.254146 
r147 659 663 0.0448242 
r148 658 661 0.0446983 
r149 658 659 1.4039 
r150 572 573 0.147619 
r151 568 569 0.14988 
r152 806 568 0.0380723 
r153 565 567 0.143333 
r154 804 564 0.0385542 
r155 562 564 0.14506 
r156 818 561 0.159 
r157 544 818 0.159 
r158 543 573 0.02 
r159 543 561 1.247 
r160 542 569 0.02 
r161 542 544 1.243 
r162 818 541 0.192 
r163 539 818 0.192 
r164 538 539 0.342 
r165 818 538 0.192 
r166 536 818 0.192 
r167 535 536 0.342 
r168 818 535 0.192 
r169 533 818 0.192 
r170 532 533 0.342 
r171 818 532 0.192 
r172 530 818 0.192 
r173 529 572 0.02 
r174 529 541 1.214 
r175 528 571 0.04 
r176 528 530 0.243 
r177 526 568 0.02 
r178 526 571 0.938734 
r179 524 572 0.0380952 
r180 524 830 4.80524 
r181 523 813 0.555238 
r182 523 567 0.0380952 
r183 818 519 0.159 
r184 517 818 0.159 
r185 516 517 0.408 
r186 818 516 0.159 
r187 514 818 0.159 
r188 513 514 0.408 
r189 818 513 0.159 
r190 511 818 0.159 
r191 510 511 0.408 
r192 818 510 0.159 
r193 508 818 0.159 
r194 507 567 0.02 
r195 507 519 1.247 
r196 506 564 0.02 
r197 506 508 1.243 
r198 505 565 0.02 
r199 504 562 0.02 
r200 504 505 4.69271 
.ends

.subckt PM_PC3D31D%U14_MN4$11_gate 98 103 219 224 340 345 410 415 420 425 430
+ 435 449
c0 608 0 0.262319f
c1 599 0 0.434391f
c2 594 0 0.434851f
c3 589 0 0.434575f
c4 584 0 0.435587f
c5 572 0 2.53771f
c6 568 0 0.236421f
c7 553 0 1.11308f
c8 552 0 0.431447f
c9 544 0 0.834078f
c10 542 0 1.1253f
c11 538 0 0.826643f
c12 532 0 0.831111f
c13 526 0 0.840249f
c14 524 0 0.265083f
c15 522 0 0.154919f
c16 519 0 0.549905f
c17 516 0 0.0542673f
c18 515 0 0.491336f
c19 514 0 0.0454806f
c20 512 0 0.877133f
c21 511 0 0.746487f
c22 507 0 1.12148f
c23 503 0 1.12251f
c24 502 0 0.166461f
c25 501 0 8.91614f
c26 498 0 7.05495f
c27 495 0 0.470146f
c28 492 0 15.6852f
c29 487 0 1.40565f
c30 485 0 0.126896f
c31 480 0 0.113626f
c32 474 0 0.678933f
c33 473 0 0.0631592f
c34 464 0 0.535943f
c35 456 0 0.535994f
c36 450 0 0.299915f
c37 449 0 0.233998f
c38 442 0 0.166246f
c39 441 0 0.608776f
c40 440 0 0.169456f
c41 439 0 0.609004f
c42 438 0 0.169342f
c43 437 0 0.539737f
c44 435 0 3.10106f
c45 430 0 3.04886f
c46 425 0 3.04886f
c47 420 0 3.04886f
c48 415 0 3.04886f
c49 410 0 3.10216f
c50 354 0 0.974344f
c51 345 0 3.04886f
c52 344 0 0.168943f
c53 340 0 3.04886f
c54 339 0 0.168259f
c55 236 0 0.972748f
c56 224 0 3.04886f
c57 223 0 0.16995f
c58 219 0 3.04886f
c59 218 0 0.170025f
c60 115 0 0.975477f
c61 103 0 3.04886f
c62 102 0 0.169855f
c63 98 0 3.04886f
c64 97 0 0.169912f
r65 601 603 0.0556098 
r66 566 568 6 
r67 603 552 0.000487805 
r68 550 552 1.5 
r69 550 553 0.118418 
r70 546 599 0.00195122 
r71 596 546 0.0536585 
r72 544 546 1.5 
r73 544 548 0.0693333 
r74 540 594 0.000487805 
r75 591 540 0.055122 
r76 538 540 1.5 
r77 538 542 0.0701687 
r78 534 589 0.00292683 
r79 586 534 0.0526829 
r80 532 534 1.5 
r81 532 536 0.0696651 
r82 528 584 0.00536585 
r83 581 528 0.0502439 
r84 526 528 1.5 
r85 526 530 0.0715479 
r86 577 524 0.0521951 
r87 522 524 3 
r88 521 608 0.00341463 
r89 519 521 3 
r90 518 519 0.0609362 
r91 517 519 0.145021 
r92 515 518 0.0604945 
r93 515 516 0.444 
r94 513 516 0.0453233 
r95 513 514 0.08 
r96 550 512 0.101228 
r97 511 514 0.0453233 
r98 511 512 0.926 
r99 510 548 0.02 
r100 553 510 1.459 
r101 508 542 0.0200096 
r102 507 548 0.02 
r103 507 508 1.47 
r104 506 536 0.02 
r105 542 506 1.475 
r106 504 530 0.0200098 
r107 503 536 0.02 
r108 503 504 1.472 
r109 501 517 0.0604945 
r110 501 502 10.879 
r111 498 568 6 
r112 522 496 0.0524051 
r113 496 498 3.76212 
r114 495 522 0.00124031 
r115 494 502 0.0631505 
r116 494 495 0.130853 
r117 566 492 15.6586 
r118 490 492 6 
r119 487 490 1.388 
r120 487 572 6 
r121 484 572 3.376 
r122 480 485 0.0933197 
r123 473 484 0.0447517 
r124 485 473 0.157176 
r125 480 449 0.0666667 
r126 442 474 1.85294 
r127 441 464 5.05882 
r128 440 464 5.05882 
r129 439 456 5.05882 
r130 438 456 5.05882 
r131 437 450 1.85294 
r132 432 442 3.88985 
r133 432 435 183.96 
r134 427 441 3.88985 
r135 427 430 183.96 
r136 422 440 3.88985 
r137 422 425 183.96 
r138 417 439 3.88985 
r139 417 420 183.96 
r140 412 438 3.88985 
r141 412 415 183.96 
r142 407 437 3.88985 
r143 407 410 183.96 
r144 350 354 5.05882 
r145 349 354 5.05882 
r146 344 350 3.88985 
r147 344 345 183.96 
r148 339 349 3.88985 
r149 339 340 183.96 
r150 464 298 0.00142683 
r151 599 298 3 
r152 354 287 0.00133393 
r153 601 287 3 
r154 354 262 0.0278113 
r155 603 262 3 
r156 474 251 0.00142683 
r157 608 251 3 
r158 229 236 5.05882 
r159 228 236 5.05882 
r160 223 229 3.88985 
r161 223 224 183.96 
r162 218 228 3.88985 
r163 218 219 183.96 
r164 456 177 0.00142683 
r165 589 177 3 
r166 236 166 0.00133393 
r167 591 166 3 
r168 141 236 0.0278113 
r169 594 141 3 
r170 464 130 0.0277856 
r171 596 130 3 
r172 108 115 5.05882 
r173 107 115 5.05882 
r174 102 108 3.88985 
r175 102 103 183.96 
r176 97 107 3.88985 
r177 97 98 183.96 
r178 450 56 0.00142683 
r179 577 56 3 
r180 115 45 0.00133393 
r181 581 45 3 
r182 20 115 0.0278113 
r183 584 20 3 
r184 456 9 0.0277856 
r185 586 9 3 
.ends

.subckt PM_PC3D31D%net_m32_VDDO_res 7 33
c0 33 0 1.67678f
c1 29 0 0.155937f
c2 17 0 0.168477f
c3 16 0 0.77869f
c4 15 0 1.5864f
c5 14 0 0.0751095f
c6 10 0 0.0726397f
c7 9 0 0.110113f
c8 7 0 0.387097f
r9 16 33 2.05452 
r10 16 17 8.75861 
r11 15 29 66.7742 
r12 14 29 60.5806 
r13 11 15 3.35663 
r14 11 17 11.5758 
r15 10 14 3.35347 
r16 9 10 6.625 
r17 6 9 4.5965 
r18 6 7 4.56364 
.ends

.subckt PM_PC3D31D%VDDO 21 828 887 896 907 918 929 940 951 962 1201 1210 1213
+ 1224 1312 1321 1323 1629 1633 1636 1641 1648 1655 1662 1670 1681 1694 1700 1706
+ 1712 1718 1763 1777 1780 1785
c0 1785 0 20.331f
c1 1777 0 47.8931f
c2 1760 0 9.31787f
c3 1757 0 3.07874f
c4 1726 0 9.57209f
c5 1718 0 1.75851f
c6 1712 0 2.26261f
c7 1706 0 1.05279f
c8 1700 0 0.964394f
c9 1694 0 2.02376f
c10 1691 0 3.35178f
c11 1678 0 0.505312f
c12 1674 0 30.2873f
c13 1673 0 1.97484f
c14 1670 0 62.8661f
c15 1654 0 50.9197f
c16 1645 0 0.696813f
c17 1643 0 1.24538f
c18 1641 0 3.00652f
c19 1633 0 2.49843f
c20 1627 0 0.13036f
c21 1622 0 0.0724239f
c22 1620 0 1.09396f
c23 1613 0 0.330853f
c24 1609 0 0.15028f
c25 1603 0 0.229821f
c26 1599 0 0.661063f
c27 1595 0 0.347854f
c28 1591 0 0.206527f
c29 1587 0 0.400001f
c30 1581 0 2.76891f
c31 1579 0 0.554162f
c32 1574 0 1.52944f
c33 1572 0 0.988028f
c34 1570 0 0.0714314f
c35 1569 0 0.111846f
c36 1565 0 2.26536f
c37 1563 0 0.0920455f
c38 1562 0 0.0396695f
c39 1561 0 0.0461449f
c40 1560 0 0.653194f
c41 1557 0 0.233127f
c42 1518 0 9.76182f
c43 1509 0 0.796059f
c44 1339 0 1.67177f
c45 1323 0 0.515167f
c46 1321 0 0.435972f
c47 1312 0 0.0819925f
c48 1275 0 0.119988f
c49 1271 0 1.87328f
c50 1267 0 0.453271f
c51 1264 0 0.419654f
c52 1263 0 0.114225f
c53 1261 0 0.00686422f
c54 1259 0 8.25864f
c55 1258 0 9.05691f
c56 1256 0 0.901347f
c57 1242 0 0.0962101f
c58 1233 0 0.0604021f
c59 1232 0 4.48861f
c60 1231 0 2.35145f
c61 1229 0 0.034797f
c62 1228 0 0.205308f
c63 1224 0 0.308482f
c64 1213 0 0.329267f
c65 1210 0 0.667752f
c66 1208 0 0.0301061f
c67 1207 0 0.86994f
c68 1201 0 1.25664f
c69 1124 0 3.63084f
c70 1074 0 1.29937f
c71 1070 0 0.615713f
c72 1066 0 8.82846f
c73 1064 0 6.7868f
c74 1062 0 0.588747f
c75 1056 0 0.170971f
c76 1053 0 0.0533066f
c77 1051 0 0.0989764f
c78 969 0 7.33964f
c79 966 0 11.7156f
c80 955 0 19.4869f
c81 944 0 19.4869f
c82 933 0 19.5155f
c83 922 0 19.4869f
c84 911 0 19.4869f
c85 900 0 11.8383f
c86 887 0 7.73649f
c87 853 0 0.210878f
c88 827 0 5.39118f
c89 816 0 0.0533066f
c90 805 0 0.12462f
c91 804 0 5.89132f
c92 801 0 0.104443f
c93 800 0 6.15801f
c94 21 0 0.580364f
c95 17 0 0.486838f
c96 16 0 6.72918f
c97 7 0 0.152029f
c98 6 0 6.75738f
r99 1780 1783 0.00394881 
r100 1774 1775 0.192505 
r101 1773 1774 0.0205664 
r102 1772 1773 0.12427 
r103 1771 1772 0.0141176 
r104 1770 1771 0.0204357 
r105 1769 1770 0.0879739 
r106 1768 1769 0.0270153 
r107 1767 1768 0.0699782 
r108 1759 1777 0.00304139 
r109 1775 1759 0.00174292 
r110 1757 1759 0.461538 
r111 1721 1774 0.545455 
r112 1718 1721 1.185 
r113 1715 1773 0.545455 
r114 1712 1715 1.45 
r115 1709 1772 0.5 
r116 1706 1709 0.4025 
r117 1703 1771 0.5 
r118 1700 1703 0.28 
r119 1697 1768 0.5 
r120 1694 1697 1.455 
r121 1693 1767 0.00174292 
r122 1763 1693 0.00305011 
r123 1691 1693 0.461538 
r124 1685 1785 0.0039415 
r125 1783 1685 0.467422 
r126 1683 1685 0.5 
r127 1681 1683 0.181 
r128 1678 1681 0.17 
r129 1678 1775 1.5 
r130 1675 1676 0.5433 
r131 1674 1675 0.2247 
r132 1673 1676 0.099 
r133 1669 1670 0.0136564 
r134 1668 1669 0.0314855 
r135 1665 1666 0.0334274 
r136 1662 1665 0.01361 
r137 1651 1783 0.5 
r138 1648 1651 0.181 
r139 1645 1648 0.17 
r140 1645 1767 1.5 
r141 1643 1674 0.5293 
r142 1639 1641 0.0526456 
r143 1636 1639 0.0552365 
r144 1625 1627 0.12 
r145 1615 1618 3 
r146 1726 1615 0.0677429 
r147 1613 1615 3 
r148 1726 1605 0.1116 
r149 1754 1605 0.0028 
r150 1603 1605 6 
r151 1584 1760 6 
r152 1579 1581 6 
r153 1579 1584 0.752258 
r154 1576 1627 0.02 
r155 1573 1625 0.02 
r156 1573 1574 2.92286 
r157 1622 1571 0.0456991 
r158 1571 1572 2.06857 
r159 1569 1572 0.0446983 
r160 1569 1570 0.0971429 
r161 1567 1570 0.0446983 
r162 1567 1620 1.64571 
r163 1564 1581 2.907 
r164 1563 1760 0.0571429 
r165 1562 1565 0.758603 
r166 1562 1563 0.0579048 
r167 1560 1564 0.0448005 
r168 1560 1561 0.685977 
r169 1556 1561 0.050458 
r170 1556 1557 0.12 
r171 1518 1754 0.2648 
r172 1517 1754 0.2664 
r173 1516 1754 0.2664 
r174 1509 1557 7.46512 
r175 1508 1557 7.46512 
r176 1332 1595 1 
r177 1565 1329 1.58968 
r178 1329 1599 1.2 
r179 1318 1609 3 
r180 1315 1318 0.2885 
r181 1315 1591 2 
r182 1312 1315 2.755 
r183 1311 1312 1.8985 
r184 1310 1311 0.425 
r185 1603 1288 0.000149533 
r186 1643 1287 0.0555566 
r187 1287 1288 6 
r188 1286 1618 0.0444444 
r189 1613 1286 7.40741e-05 
r190 1643 1285 0.0279474 
r191 1285 1286 1.5 
r192 1591 1284 0.000233918 
r193 1675 1284 2 
r194 1599 1282 0.000114123 
r195 1674 1282 1.2 
r196 1595 1280 0.000100503 
r197 1676 1280 1 
r198 1609 1278 0.000299625 
r199 1675 1278 3 
r200 1622 1275 6 
r201 1620 1272 0.0557895 
r202 1272 1310 3 
r203 1587 1271 6 
r204 1587 1268 0.6875 
r205 1268 1565 6 
r206 1323 1267 0.289474 
r207 1770 1267 0.5 
r208 1576 1264 0.787143 
r209 1264 1311 6 
r210 1263 1339 0.0561431 
r211 1574 1263 6 
r212 1261 1321 0.0484211 
r213 1769 1261 2 
r214 1259 1332 0.219259 
r215 1258 1318 0.0845 
r216 1254 1271 3.25125 
r217 1253 1256 0.111392 
r218 1253 1254 0.0200506 
r219 1242 1310 0.8885 
r220 1241 1757 0.526 
r221 1241 1259 0.0447005 
r222 1240 1757 2.122 
r223 1240 1258 0.0446983 
r224 1238 1256 1.0625 
r225 1232 1238 0.0446983 
r226 1232 1233 5.445 
r227 1230 1233 0.0450317 
r228 1230 1231 4.61527 
r229 1228 1231 0.0450317 
r230 1228 1229 0.35875 
r231 1223 1229 0.0446983 
r232 1223 1224 0.13875 
r233 1210 1213 0.81913 
r234 1209 1213 0.309565 
r235 1207 1209 0.0446983 
r236 1207 1208 2.21913 
r237 1205 1208 0.0447246 
r238 1205 1339 4.4 
r239 1200 1275 0.0422277 
r240 1200 1201 1.5875 
r241 1196 1691 2.122 
r242 1196 1242 0.0446983 
r243 1126 1127 0.490516 
r244 1125 1126 0.232864 
r245 1124 1125 0.279437 
r246 1115 1116 0.279231 
r247 1114 1115 0.2665 
r248 1105 1106 0.273962 
r249 1104 1105 0.261472 
r250 1091 1092 0.278131 
r251 1090 1091 0.185047 
r252 1087 1668 0.0601494 
r253 1666 1087 0.0634357 
r254 1087 1639 0.00227273 
r255 1665 1086 3 
r256 1665 1084 0.666667 
r257 1666 1082 1.5 
r258 1668 1080 1.5 
r259 1669 1078 3 
r260 1669 1076 3 
r261 1669 1074 2 
r262 1072 1633 0.0620926 
r263 1629 1072 0.0688218 
r264 1660 1072 0.0025 
r265 1066 1104 3.77358e-05 
r266 1064 1114 3.84615e-05 
r267 1056 1124 0.117559 
r268 1055 1056 0.119812 
r269 1055 1062 0.181784 
r270 1054 1076 0.0101408 
r271 1053 1074 0.122066 
r272 1051 1052 0.08 
r273 1051 1070 0.274084 
r274 980 982 0.0829907 
r275 980 1127 0.1 
r276 966 1080 1.5 
r277 962 966 0.793846 
r278 959 962 0.842637 
r279 959 1082 1.5 
r280 951 955 0.55145 
r281 948 951 0.585344 
r282 940 944 0.55145 
r283 937 940 0.585344 
r284 929 933 0.55145 
r285 926 929 0.585344 
r286 922 1116 1.5 
r287 918 922 0.55145 
r288 915 918 0.585344 
r289 915 1106 1.5 
r290 911 1115 1.5 
r291 907 911 0.55145 
r292 904 907 0.585344 
r293 904 1105 1.5 
r294 900 1114 1.5 
r295 896 900 0.793846 
r296 893 896 0.842637 
r297 893 1104 1.5 
r298 889 1096 0.2 
r299 969 887 0.159252 
r300 982 887 0.159252 
r301 887 989 0.159252 
r302 887 980 0.0291589 
r303 887 889 0.0391734 
r304 870 887 0.0397569 
r305 870 1090 0.2 
r306 859 1084 0.231776 
r307 1096 859 0.232523 
r308 1665 859 1 
r309 948 857 1.5 
r310 857 1082 0.261509 
r311 1666 857 1.5 
r312 955 855 1.5 
r313 855 1080 0.266538 
r314 1668 855 1.5 
r315 1669 853 1 
r316 851 1096 0.231028 
r317 1086 851 0.278131 
r318 1665 851 0.6 
r319 937 849 1.5 
r320 849 857 0.273962 
r321 1666 849 1.5 
r322 944 847 1.5 
r323 847 855 0.279231 
r324 1668 847 1.5 
r325 845 1076 0.279437 
r326 1078 845 0.279437 
r327 1669 845 0.6 
r328 843 1086 0.139065 
r329 1092 843 0.683365 
r330 1665 843 2 
r331 926 841 1.5 
r332 841 849 0.273962 
r333 1106 841 0.273962 
r334 1666 841 1.5 
r335 933 839 1.5 
r336 839 847 0.279231 
r337 1116 839 0.279231 
r338 1668 839 1.5 
r339 837 1078 0.232864 
r340 1127 837 0.139343 
r341 1669 837 0.857143 
r342 834 1091 2 
r343 834 1070 0.666667 
r344 1655 834 0.0165962 
r345 834 1092 0.666667 
r346 832 1105 1.5 
r347 832 1066 1.5 
r348 832 1660 0.0805639 
r349 834 832 0.0404834 
r350 832 1106 1.5 
r351 830 1115 1.5 
r352 830 1064 1.5 
r353 1654 830 0.0330312 
r354 1660 830 0.0694058 
r355 830 1116 1.5 
r356 828 1125 3 
r357 828 1124 0.666667 
r358 828 1062 0.6 
r359 828 1673 0.0532592 
r360 828 1654 0.0241042 
r361 828 1126 0.666667 
r362 827 1090 0.0930841 
r363 1052 827 0.0616822 
r364 834 827 0.666667 
r365 818 853 0.0239252 
r366 818 1053 0.04 
r367 816 853 0.135327 
r368 816 1054 0.04 
r369 811 989 0.73271 
r370 810 969 0.737944 
r371 809 887 0.73271 
r372 808 887 0.737944 
r373 805 809 0.0451326 
r374 805 887 2.504 
r375 804 811 0.0451326 
r376 804 887 2.44889 
r377 801 808 0.045921 
r378 801 887 2.687 
r379 800 810 0.045921 
r380 800 887 2.885 
r381 21 1509 1.36978 
r382 21 1508 1.36978 
r383 17 1754 1.51848 
r384 16 1518 0.0447329 
r385 16 1754 1.51162 
r386 15 1615 0.0737243 
r387 15 17 0.0447329 
r388 1517 7 0.0447329 
r389 7 1754 1.51848 
r390 6 1516 0.0447329 
r391 6 1754 1.51162 
.ends

.subckt PM_PC3D31D%CIN 14 19 24 61 125 160
c0 157 0 0.112303f
c1 155 0 7.07074f
c2 145 0 15.725f
c3 136 0 4.21598f
c4 130 0 0.143541f
c5 128 0 5.08146f
c6 122 0 0.0723692f
c7 119 0 0.037637f
c8 117 0 0.0810017f
c9 115 0 1.38832f
c10 112 0 0.0937442f
c11 109 0 1.95482f
c12 105 0 1.35086f
c13 104 0 0.0379464f
c14 103 0 3.153f
c15 102 0 3.30766f
c16 100 0 0.0895149f
c17 97 0 0.0898897f
c18 94 0 0.0375884f
c19 93 0 0.855486f
c20 92 0 0.0338006f
c21 88 0 1.37568f
c22 85 0 0.0345401f
c23 84 0 0.568273f
c24 80 0 7.74777f
c25 74 0 0.246801f
c26 61 0 0.0075967f
c27 48 0 2.69637f
c28 42 0 0.572055f
c29 38 0 0.0729834f
c30 37 0 1.06207f
c31 35 0 0.0743514f
c32 31 0 0.350684f
c33 29 0 0.357702f
c34 24 0 6.32264e-19
c35 23 0 0.940805f
c36 19 0 5.39284e-19
c37 18 0 1.11847f
c38 14 0 0.348237f
r39 157 160 0.0207123 
r40 157 158 0.0568712 
r41 143 145 3.24571 
r42 142 143 0.424286 
r43 140 142 11.73 
r44 133 155 6 
r45 145 130 6 
r46 128 130 6 
r47 128 133 10.7371 
r48 122 125 0.0207123 
r49 122 157 6 
r50 120 155 11.4788 
r51 117 118 0.0446512 
r52 119 115 2.20571 
r53 112 119 0.0434303 
r54 109 117 0.0447313 
r55 103 120 0.04509 
r56 103 104 7.86286 
r57 148 102 4.69857 
r58 100 102 6 
r59 158 100 0.285714 
r60 98 104 0.0446983 
r61 98 100 0.0457143 
r62 95 97 0.107847 
r63 95 148 6 
r64 93 97 0.0448046 
r65 93 94 1.56857 
r66 92 94 0.0448488 
r67 91 92 0.103226 
r68 88 140 6 
r69 86 88 2.17429 
r70 84 91 0.0448488 
r71 84 85 1.35143 
r72 136 82 7.37143 
r73 80 82 6 
r74 79 85 0.0446983 
r75 79 80 14.7657 
r76 76 136 6 
r77 74 86 0.0446983 
r78 74 76 0.3 
r79 61 50 1.125 
r80 118 50 6 
r81 48 59 4.02571 
r82 115 48 6 
r83 112 45 0.0308571 
r84 45 143 6 
r85 109 43 2.62049 
r86 43 59 6 
r87 105 42 6 
r88 105 39 1.88 
r89 39 142 6 
r90 37 50 0.0125 
r91 37 38 0.0116061 
r92 33 42 0.7625 
r93 32 35 0.07625 
r94 32 33 0.02 
r95 30 38 0.0306792 
r96 30 31 0.453333 
r97 29 38 0.0306792 
r98 28 29 0.453333 
r99 23 31 0.0448998 
r100 23 24 1.1375 
r101 18 28 0.0448998 
r102 18 19 1.1375 
r103 13 35 0.02 
r104 13 14 0.2625 
.ends

.subckt PM_PC3D31D%PAD 21 50 91 120 161 190 247 271 295 319 349 355 380 488 507
+ 514
c0 522 0 26.8792f
c1 515 0 84.0152f
c2 514 0 64.3341f
c3 511 0 159.215f
c4 506 0 1.02561f
c5 499 0 9.97339f
c6 494 0 12.958f
c7 485 0 0.118304f
c8 482 0 206.169f
c9 468 0 15.3329f
c10 450 0 3.86483f
c11 381 0 128.465f
c12 380 0 1.04909f
c13 355 0 13.2018f
c14 349 0 13.1716f
c15 319 0 13.1699f
c16 295 0 13.1832f
c17 271 0 13.4186f
c18 247 0 13.1699f