* File: pc3t02d.dist.sp.pex
* Created: Sun Jul  4 12:43:45 2010
* Program "Calibre xRC"
* Version "v2008.4_19.14"
* Nominal Temperature: 27C
* Circuit Temperature: 27C
* 
.subckt PM_PC3T02D%PAD 21 50 79 108 137 166 218 242 266 290 320 326 389 428 452
+ 459
c0 467 0 28.4309f
c1 460 0 83.1329f
c2 459 0 64.3341f
c3 456 0 159.215f
c4 451 0 0.991473f
c5 444 0 9.95779f
c6 434 0 13.0868f
c7 425 0 0.117887f
c8 423 0 213.099f
c9 408 0 15.3329f
c10 397 0 46.9214f
c11 392 0 65.4578f
c12 390 0 15.8897f
c13 389 0 1.04909f
c14 388 0 3.88476f
c15 326 0 13.3926f
c16 320 0 13.3816f
c17 290 0 13.3817f
c18 266 0 13.3917f
c19 242 0 13.6577f
c20 218 0 13.378f
c21 176 0 7.52869f
c22 166 0 2.98552f
c23 149 0 6.78371f
c24 137 0 2.98621f
c25 120 0 6.78371f
c26 108 0 2.98555f
c27 91 0 6.78371f
c28 79 0 2.98555f
c29 62 0 6.78371f
c30 50 0 2.98555f
c31 33 0 6.78371f
c32 21 0 2.98542f
c33 4 0 6.78371f
r34 467 468 0.118407 
r35 466 467 0.118407 
r36 465 466 0.056883 
r37 464 465 0.061524 
r38 463 464 0.118407 
r39 462 463 0.0830354 
r40 461 462 0.0353716 
r41 459 460 0.0124825 
r42 457 459 0.000593149 
r43 456 457 0.0669731 
r44 451 452 0.00916 
r45 444 462 0.0545455 
r46 434 465 0.015 
r47 425 428 0.00916 
r48 425 451 2 
r49 423 434 0.0264274 
r50 421 423 0.147454 
r51 421 422 0.0288462 
r52 415 416 0.00752787 
r53 414 415 0.021023 
r54 412 414 0.000537705 
r55 412 456 0.00162999 
r56 410 412 0.000537705 
r57 408 410 0.0285508 
r58 399 451 0.1388 
r59 398 399 0.132996 
r60 397 398 0.0171733 
r61 394 395 0.0171733 
r62 393 394 0.0171733 
r63 392 393 0.0171733 
r64 391 397 0.0142401 
r65 391 395 0.00293318 
r66 390 422 0.00646891 
r67 390 392 0.00818451 
r68 388 444 0.202116 
r69 388 389 0.0147368 
r70 315 320 0.0072093 
r71 392 315 0.0566038 
r72 313 326 0.0072093 
r73 398 313 0.0566038 
r74 286 290 0.0072093 
r75 397 286 0.0566038 
r76 262 266 0.0072093 
r77 395 262 0.0566038 
r78 238 242 0.0072093 
r79 394 238 0.0566038 
r80 214 218 0.0072093 
r81 393 214 0.0566038 
r82 194 197 0.0022831 
r83 416 194 0.0375475 
r84 194 457 0.00547945 
r85 414 193 0.00210084 
r86 191 193 0.000537705 
r87 410 191 0.00210084 
r88 193 182 0.0105115 
r89 415 182 0.00712251 
r90 178 197 0.0187738 
r91 182 178 0.00376393 
r92 416 178 0.00712251 
r93 176 191 0.0142754 
r94 408 176 0.00356125 
r95 460 173 0.345778 
r96 172 468 0.0220132 
r97 172 173 0.319822 
r98 166 153 0.00249413 
r99 173 153 0.0425532 
r100 149 166 0.00249413 
r101 173 149 0.0425532 
r102 460 144 0.345778 
r103 143 467 0.0220132 
r104 143 144 0.319822 
r105 137 124 0.00249413 
r106 144 124 0.0425532 
r107 120 137 0.00249413 
r108 144 120 0.0425532 
r109 460 115 0.345778 
r110 114 466 0.0220132 
r111 114 115 0.319822 
r112 108 95 0.00249413 
r113 115 95 0.0425532 
r114 91 108 0.00249413 
r115 115 91 0.0425532 
r116 460 86 0.345778 
r117 85 464 0.0220132 
r118 85 86 0.319822 
r119 79 66 0.00249413 
r120 86 66 0.0425532 
r121 62 79 0.00249413 
r122 86 62 0.0425532 
r123 460 57 0.345778 
r124 56 463 0.0220132 
r125 56 57 0.319822 
r126 50 37 0.00249413 
r127 57 37 0.0425532 
r128 33 50 0.00249413 
r129 57 33 0.0425532 
r130 460 28 0.345778 
r131 27 461 0.0220132 
r132 27 28 0.319822 
r133 21 8 0.00249413 
r134 28 8 0.0425532 
r135 4 21 0.00249413 
r136 28 4 0.0425532 
.ends

.subckt PM_PC3T02D%noxref_2 8 18
c0 20 0 4.82415f
c1 18 0 0.993329f
c2 8 0 6.70706f
r3 18 20 0.158105 
r4 20 8 0.158526 
.ends

.subckt PM_PC3T02D%net_m32_VSSO_res 43 68 75 80 87 119
c0 119 0 0.73297f
c1 115 0 0.808415f
c2 113 0 0.0941699f
c3 97 0 0.0628754f
c4 91 0 0.235615f
c5 87 0 0.519409f
c6 85 0 0.19588f
c7 84 0 0.135544f
c8 80 0 0.519409f
c9 75 0 0.519409f
c10 73 0 0.102851f
c11 72 0 0.162435f
c12 68 0 0.733874f
c13 43 0 0.586021f
c14 41 0 0.0481112f
c15 40 0 0.37934f
r16 113 115 0.0223492 
r17 110 113 0.124706 
r18 98 119 85 
r19 95 115 2.20253 
r20 94 96 6.2212 
r21 94 95 1.5553 
r22 93 94 10.0922 
r23 92 97 2.23066 
r24 91 98 3.37824 
r25 91 92 10.8571 
r26 86 97 0.93595 
r27 86 87 85 
r28 85 96 4.70046 
r29 84 97 2.23066 
r30 84 85 9 
r31 79 96 1.5553 
r32 79 80 85 
r33 74 93 1.5553 
r34 74 75 85 
r35 72 93 2.90323 
r36 72 73 10.8571 
r37 67 73 3.37824 
r38 67 68 85 
r39 42 43 0.18 
r40 110 41 0.0446983 
r41 40 42 0.0446983 
r42 40 41 0.521176 
.ends

.subckt PM_PC3T02D%U27_padr 40 44 52 118 120 122 164 172
c0 265 0 16.1594f
c1 259 0 9.28968f
c2 252 0 1.98041f
c3 248 0 15.9344f
c4 234 0 0.145078f
c5 233 0 0.0372956f
c6 232 0 0.0478417f
c7 231 0 0.0873247f
c8 228 0 6.60484f
c9 225 0 0.611623f
c10 224 0 0.16373f
c11 221 0 0.153488f
c12 217 0 5.64187f
c13 215 0 0.516633f
c14 213 0 0.0693973f
c15 212 0 0.207306f
c16 211 0 0.411447f
c17 207 0 0.692639f
c18 201 0 1.02523f
c19 195 0 2.06622f
c20 189 0 0.540884f
c21 177 0 0.42051f
c22 172 0 1.07017f
c23 171 0 0.70379f
c24 170 0 0.0771405f
c25 169 0 0.489793f
c26 166 0 0.669069f
c27 164 0 5.5788e-21
c28 145 0 0.0984887f
c29 138 0 0.0817276f
c30 130 0 16.0874f
c31 122 0 1.07226f
c32 120 0 0.577412f
c33 118 0 1.01781f
c34 92 0 0.134724f
c35 88 0 0.432026f
c36 85 0 0.581709f
c37 84 0 0.371236f
c38 82 0 0.10558f
c39 79 0 1.7121f
c40 78 0 0.566054f
c41 75 0 0.392313f
c42 72 0 0.0460406f
c43 71 0 0.0322888f
c44 70 0 0.0767087f
c45 65 0 0.110937f
c46 62 0 0.0980321f
c47 58 0 0.315801f
c48 56 0 0.0767388f
c49 55 0 0.102686f
c50 52 0 1.30771f
c51 49 0 0.0447228f
c52 48 0 0.384784f
c53 44 0 2.28922f
c54 40 0 1.56404f
r55 265 250 0.172857 
r56 248 250 6 
r57 244 246 3.688 
r58 234 236 3 
r59 233 234 0.109474 
r60 233 231 0.0456991 
r61 231 232 0.147143 
r62 228 265 2 
r63 226 232 0.0446983 
r64 226 228 10.3129 
r65 225 236 0.30381 
r66 219 221 0.10375 
r67 259 217 0.185079 
r68 215 217 1.2 
r69 214 215 0.482857 
r70 212 214 0.0446983 
r71 212 213 0.125714 
r72 211 213 0.0446983 
r73 210 225 0.0446983 
r74 210 211 0.407619 
r75 207 252 6 
r76 205 224 0.15871 
r77 205 207 0.867097 
r78 203 248 1.74267 
r79 246 203 9.54667 
r80 201 203 6 
r81 224 201 1.56387 
r82 188 221 0.02 
r83 188 189 0.755 
r84 184 219 0.02 
r85 179 252 2.38452 
r86 171 259 0.18836 
r87 171 172 0.0147368 
r88 169 179 0.0446983 
r89 169 170 0.619355 
r90 166 170 0.0456388 
r91 165 177 0.0200258 
r92 165 166 0.791 
r93 164 177 0.00412903 
r94 129 130 1.07733 
r95 110 122 168.333 
r96 110 145 3.92502 
r97 105 120 51.6667 
r98 104 105 1.66667 
r99 97 118 168.333 
r100 138 97 3.6393 
r101 195 92 6 
r102 89 198 0.8025 
r103 195 89 2.8475 
r104 89 130 6 
r105 88 145 0.77 
r106 198 88 6 
r107 85 193 1.2525 
r108 85 246 6 
r109 84 138 0.7825 
r110 193 84 6 
r111 189 82 6 
r112 79 186 0.8 
r113 184 79 2.045 
r114 79 129 6 
r115 186 78 6 
r116 75 182 0.482667 
r117 75 244 6 
r118 74 129 2.816 
r119 182 74 6 
r120 72 92 0.05 
r121 68 70 0.12 
r122 68 78 0.8825 
r123 66 82 0.04375 
r124 65 66 0.02 
r125 63 65 0.10375 
r126 62 72 0.0446983 
r127 61 71 0.0338756 
r128 61 62 0.1875 
r129 58 104 1.16667 
r130 57 71 0.0338756 
r131 57 58 0.245 
r132 55 71 0.00880368 
r133 55 56 0.25 
r134 51 56 0.0446983 
r135 51 52 1.2575 
r136 50 52 1.3775 
r137 48 50 0.0447588 
r138 48 49 0.544 
r139 70 44 2.375 
r140 39 63 0.02 
r141 39 40 1.40875 
r142 38 49 0.0447588 
r143 38 40 1.3775 
.ends

.subckt PM_PC3T02D%net_m68_VDDO_res 8 39
c0 39 0 2.10793f
c1 34 0 1.31679f
c2 18 0 0.080644f
c3 15 0 0.168996f
c4 10 0 0.0679088f
c5 9 0 0.731127f
c6 8 0 0.364235f
c7 6 0 0.183024f
r8 36 39 3.87662 
r9 17 34 43.5 
r10 16 34 49.5 
r11 18 15 16.5 
r12 11 18 4.13452 
r13 10 16 3.35237 
r14 9 15 3.35237 
r15 9 10 56.025 
r16 11 8 6.95493 
r17 7 36 1.62175 
r18 7 8 5.625 
r19 6 17 3.35237 
r20 6 8 5.625 
.ends

.subckt PM_PC3T02D%VSSO 400 423 427 476 799 803 810 839 846 853 873 875 880 885
+ 894 900 906 912 918 927 933 942 948 954 963 969 975 982 991 997 1009 1061 1066
+ 1071 1077
c0 1077 0 31.8475f
c1 1064 0 2.00279f
c2 1061 0 46.711f
c3 1041 0 7.93618f
c4 1039 0 6.95936f
c5 1034 0 6.96114f
c6 1029 0 6.99704f
c7 1024 0 6.99673f
c8 1019 0 6.99617f
c9 1009 0 0.00391448f
c10 1004 0 8.95235f
c11 997 0 0.342408f
c12 982 0 0.339838f
c13 975 0 1.36597f
c14 969 0 1.40025f
c15 954 0 1.35721f
c16 948 0 1.35624f
c17 933 0 1.34294f
c18 918 0 1.19901f
c19 912 0 2.00715f
c20 906 0 0.838689f
c21 900 0 1.37238f
c22 885 0 1.38345f
c23 880 0 1.69151f
c24 878 0 0.206491f
c25 875 0 0.00104091f
c26 873 0 8.25608e-19
c27 871 0 8.96457f
c28 858 0 7.86203f
c29 852 0 1.27875f
c30 842 0 1.65707f
c31 839 0 58.2584f
c32 806 0 1.34819f
c33 803 0 10.6383f
c34 791 0 0.111147f
c35 785 0 4.5962f
c36 782 0 0.113585f
c37 781 0 0.0401265f
c38 780 0 1.53271f
c39 778 0 0.0508531f
c40 777 0 0.326639f
c41 776 0 0.69353f
c42 772 0 0.518227f
c43 766 0 0.708327f
c44 764 0 0.033832f
c45 763 0 3.2538f
c46 761 0 0.383003f
c47 760 0 0.713156f
c48 759 0 0.303464f
c49 758 0 3.27963f
c50 757 0 0.383249f
c51 756 0 1.88548f
c52 754 0 0.0583091f
c53 753 0 0.180634f
c54 752 0 0.343387f
c55 719 0 0.122915f
c56 718 0 8.91081f
c57 685 0 0.264721f
c58 681 0 7.03694f
c59 677 0 0.146306f
c60 480 0 0.108773f
c61 476 0 0.60392f
c62 448 0 0.893677f
c63 446 0 0.103654f
c64 444 0 0.0450128f
c65 442 0 1.49011f
c66 441 0 0.0312995f
c67 440 0 0.347126f
c68 427 0 0.762532f
c69 423 0 0.557915f
c70 419 0 0.0481945f
c71 418 0 0.442248f
c72 400 0 0.114597f
c73 393 0 0.120775f
c74 317 0 7.04841f
c75 284 0 14.034f
c76 234 0 14.036f
c77 184 0 14.0469f
c78 134 0 14.0469f
c79 84 0 14.0469f
c80 10 0 0.146306f
r81 1075 1077 0.00282778 
r82 1074 1075 0.355444 
r83 1071 1074 0.00283333 
r84 1066 1068 0.0211813 
r85 1064 1066 0.00325866 
r86 1058 1059 0.125348 
r87 1057 1058 0.0408556 
r88 1056 1057 0.0396791 
r89 1055 1056 0.043262 
r90 1054 1055 0.0347594 
r91 1053 1054 0.0192513 
r92 1052 1053 0.0858289 
r93 1051 1052 0.0253476 
r94 1050 1051 0.0256684 
r95 1049 1050 0.0416043 
r96 1048 1049 0.0226738 
r97 1047 1048 0.0223529 
r98 1046 1047 0.0213904 
r99 1045 1064 0.0200081 
r100 1045 1046 0.0809091 
r101 1013 1014 0.0140639 
r102 1008 1009 0.0126606 
r103 1041 1006 0.0113761 
r104 1004 1006 0.0638298 
r105 1001 1059 2 
r106 997 1001 0.000380952 
r107 982 1058 2 
r108 978 1057 0.6 
r109 975 978 0.285 
r110 972 1056 0.6 
r111 969 972 0.32 
r112 957 1055 0.6 
r113 954 957 0.36 
r114 951 1054 0.6 
r115 948 951 0.37 
r116 936 1052 0.6 
r117 933 936 0.3225 
r118 921 1051 0.6 
r119 918 921 0.325 
r120 915 1050 0.6 
r121 912 915 0.3425 
r122 909 1049 0.75 
r123 906 909 0.04 
r124 903 1048 0.6 
r125 900 903 0.365 
r126 888 1047 0.6 
r127 885 888 0.3175 
r128 882 1046 0.666667 
r129 880 882 0.96 
r130 873 1008 0.013211 
r131 1004 873 0.000917431 
r132 871 873 0.000913242 
r133 871 1013 0.0638298 
r134 858 1013 0.0113242 
r135 856 858 0.0327869 
r136 855 856 0.029258 
r137 852 855 0.0131449 
r138 852 853 0.02 
r139 849 1075 0.357143 
r140 846 849 0.21 
r141 844 1061 0.00544385 
r142 1059 844 0.0345455 
r143 842 844 1 
r144 842 846 0.445 
r145 837 839 0.00612761 
r146 837 1041 0.0327869 
r147 991 835 0.130435 
r148 835 1039 0.00301741 
r149 1036 835 0.00301741 
r150 833 835 0.0266667 
r151 833 837 0.0287785 
r152 963 832 0.130435 
r153 832 1034 0.00301741 
r154 1031 832 0.00301741 
r155 830 832 0.0266667 
r156 830 833 0.0242129 
r157 942 829 0.130435 
r158 829 1029 0.00301741 
r159 1026 829 0.00301741 
r160 827 829 0.0266667 
r161 827 830 0.0242129 
r162 826 827 0.000615582 
r163 927 825 0.130435 
r164 825 1024 0.00301741 
r165 1021 825 0.00301741 
r166 823 825 0.0266667 
r167 823 826 0.0235973 
r168 894 822 0.130435 
r169 822 1019 0.00301741 
r170 1016 822 0.00301741 
r171 820 822 0.0266667 
r172 820 823 0.0242129 
r173 819 855 0.02 
r174 819 820 0.0277012 
r175 856 816 0.446124 
r176 813 1074 0.357143 
r177 810 813 0.21 
r178 808 1070 0.144076 
r179 1068 808 0.0332383 
r180 806 808 1 
r181 806 810 0.445 
r182 794 878 3 
r183 791 794 0.0536842 
r184 784 791 0.02 
r185 784 785 6.41263 
r186 781 782 0.1275 
r187 780 781 0.0448391 
r188 779 780 2.75862 
r189 777 779 0.044715 
r190 777 778 0.466667 
r191 776 778 0.0450432 
r192 1070 776 1.29371 
r193 772 791 0.02 
r194 772 773 0.734737 
r195 768 1009 0.230275 
r196 766 1004 0.210275 
r197 764 878 0.109474 
r198 762 875 0.229041 
r199 762 763 0.0863581 
r200 760 871 0.209132 
r201 760 761 0.0863581 
r202 768 758 0.0861375 
r203 758 759 0.132033 
r204 766 757 0.0861375 
r205 764 756 0.0420103 
r206 755 756 3.01467 
r207 753 755 0.0446983 
r208 753 754 0.274667 
r209 752 754 0.0447588 
r210 719 873 0.128 
r211 718 759 0.0473573 
r212 718 873 0.126 
r213 685 719 0.0473573 
r214 763 685 0.132033 
r215 681 873 0.126 
r216 680 880 1.1475 
r217 678 873 0.128 
r218 677 678 0.0473573 
r219 677 761 0.250407 
r220 480 450 0.00693642 
r221 785 450 6 
r222 1053 448 0.75 
r223 782 446 3 
r224 444 476 0.0494737 
r225 773 444 2 
r226 441 448 0.437895 
r227 441 442 0.0407126 
r228 680 440 0.0338756 
r229 426 480 0.0225434 
r230 426 427 1.14783 
r231 422 423 0.221176 
r232 418 422 0.0446983 
r233 418 419 0.608235 
r234 416 419 0.0446983 
r235 416 442 2.01647 
r236 399 440 0.00880368 
r237 399 400 0.1375 
r238 393 752 0.6025 
r239 393 446 0.0265396 
r240 320 803 0.0419737 
r241 799 320 0.0413851 
r242 826 320 0.00128205 
r243 816 317 2.21804 
r244 317 1068 0.6 
r245 991 284 0.00313778 
r246 1039 284 0.0652174 
r247 1006 273 0.0141284 
r248 273 1008 0.0652174 
r249 963 234 0.00313778 
r250 1034 234 0.0652174 
r251 224 991 0.00313778 
r252 1036 224 0.0652174 
r253 942 184 0.00313778 
r254 1029 184 0.0652174 
r255 174 963 0.00313778 
r256 1031 174 0.0652174 
r257 927 134 0.00313778 
r258 1024 134 0.0652174 
r259 124 942 0.00313778 
r260 1026 124 0.0652174 
r261 894 84 0.00313778 
r262 1019 84 0.0652174 
r263 74 927 0.00313778 
r264 1021 74 0.0652174 
r265 34 875 0.0126027 
r266 873 34 0.0131507 
r267 1014 34 0.0652174 
r268 24 894 0.00313778 
r269 1016 24 0.0652174 
r270 10 757 0.250407 
r271 10 681 0.0473573 
.ends

.subckt PM_PC3T02D%VSS 805 827 836 858 863 874 877 883
c0 883 0 90.8945f
c1 874 0 56.681f
c2 861 0 2.37405f
c3 858 0 0.00368951f
c4 855 0 1.24365f
c5 836 0 4.21808f
c6 835 0 43.7077f
c7 824 0 1.88726f
c8 816 0 15.5127f
c9 802 0 1.45501f
c10 773 0 24.8153f
c11 771 0 0.0842555f
c12 770 0 10.2975f
c13 769 0 0.0657505f
c14 768 0 7.45057f
c15 767 0 0.571035f
c16 766 0 0.184939f
c17 764 0 0.57837f
c18 763 0 0.0372194f
c19 756 0 0.144425f
c20 747 0 8.77495f
c21 745 0 0.194648f
c22 743 0 1.90581f
c23 628 0 2.46629f
c24 620 0 2.22402f
c25 612 0 1.35142f
c26 610 0 0.25644f
c27 608 0 0.276497f
c28 605 0 25.5671f
c29 599 0 0.816164f
c30 598 0 6.34069f
c31 595 0 0.0994388f
c32 592 0 2.03915f
c33 586 0 0.137389f
c34 585 0 2.48617f
c35 584 0 0.154374f
c36 583 0 2.24749f
c37 539 0 0.162892f
c38 537 0 0.721903f
c39 535 0 0.203897f
c40 510 0 2.94262f
c41 496 0 3.0577f
c42 494 0 0.031054f
c43 490 0 6.9099f
c44 489 0 0.161087f
c45 474 0 3.75184f
c46 471 0 2.9639f
r47 881 883 0.000702051 
r48 880 881 0.0832563 
r49 877 880 0.000703354 
r50 873 874 0.00318245 
r51 870 871 0.0344168 
r52 869 870 0.167059 
r53 868 869 0.128574 
r54 867 868 0.0141176 
r55 861 873 0.461538 
r56 855 858 1.28857 
r57 855 871 1.5 
r58 849 869 0.0535714 
r59 835 836 1.7665 
r60 831 873 0.00119641 
r61 871 831 0.0758524 
r62 829 831 0.428571 
r63 827 829 0.189 
r64 824 827 0.013 
r65 824 881 0.131579 
r66 820 821 0.56934 
r67 819 820 1.12447 
r68 816 819 0.628223 
r69 816 870 0.3 
r70 809 867 0.089651 
r71 863 809 0.00438684 
r72 807 809 0.428571 
r73 805 807 0.189 
r74 802 805 0.013 
r75 802 880 0.131579 
r76 836 796 2.59036 
r77 770 771 0.0338756 
r78 768 849 2.8715 
r79 768 769 0.0338756 
r80 762 771 0.0338756 
r81 761 769 0.0338756 
r82 758 771 0.00880368 
r83 758 836 0.958 
r84 757 769 0.00880368 
r85 757 836 0.986 
r86 756 764 0.0574488 
r87 766 756 0.0632911 
r88 753 763 0.0448201 
r89 750 861 1.518 
r90 749 861 0.426 
r91 747 796 1.08482 
r92 743 753 2.13041 
r93 770 622 0.733 
r94 836 622 1.93 
r95 620 789 3 
r96 617 849 1.612 
r97 763 617 1.283 
r98 617 868 1.5 
r99 615 836 1.07807 
r100 745 615 1.06072 
r101 615 628 1 
r102 789 612 0.24 
r103 820 612 1.5 
r104 622 610 3 
r105 819 610 3 
r106 608 796 3 
r107 821 608 3 
r108 605 813 1.1314 
r109 605 867 0.125 
r110 604 628 0.0075 
r111 625 604 0.056 
r112 813 604 0.24 
r113 602 767 0.102486 
r114 602 766 0.0155975 
r115 773 602 1 
r116 600 773 0.9662 
r117 600 625 0.02 
r118 599 762 0.5005 
r119 750 599 0.0446983 
r120 598 761 0.5005 
r121 749 598 0.0446983 
r122 597 620 0.830244 
r123 596 620 0.573659 
r124 595 835 1.337 
r125 743 595 0.0448201 
r126 591 592 1.37048 
r127 586 597 0.0448242 
r128 586 587 0.678222 
r129 585 592 0.0447675 
r130 585 587 0.650667 
r131 584 596 0.0446983 
r132 583 591 0.0447067 
r133 583 584 1.45854 
r134 538 539 0.147619 
r135 534 535 0.14988 
r136 747 534 0.0380723 
r137 531 533 0.143333 
r138 745 530 0.0385542 
r139 528 530 0.14506 
r140 836 527 0.159 
r141 510 836 0.159 
r142 509 539 0.02 
r143 509 527 1.247 
r144 508 535 0.02 
r145 508 510 1.243 
r146 836 507 0.192 
r147 505 836 0.192 
r148 504 505 0.342 
r149 836 504 0.192 
r150 502 836 0.192 
r151 501 502 0.342 
r152 836 501 0.192 
r153 499 836 0.192 
r154 498 499 0.342 
r155 836 498 0.192 
r156 496 836 0.192 
r157 495 538 0.02 
r158 495 507 1.214 
r159 494 537 0.04 
r160 494 496 0.243 
r161 492 534 0.02 
r162 492 537 0.938734 
r163 490 538 0.0380952 
r164 490 767 4.80524 
r165 489 764 0.555238 
r166 489 533 0.0380952 
r167 836 485 0.159 
r168 483 836 0.159 
r169 482 483 0.408 
r170 836 482 0.159 
r171 480 836 0.159 
r172 479 480 0.408 
r173 836 479 0.159 
r174 477 836 0.159 
r175 476 477 0.408 
r176 836 476 0.159 
r177 474 836 0.159 
r178 473 533 0.02 
r179 473 485 1.247 
r180 472 530 0.02 
r181 472 474 1.243 
r182 471 531 0.02 
r183 470 528 0.02 
r184 470 471 4.69271 
.ends

.subckt PM_PC3T02D%U27_U69$7_gate 197 202 207 212 217 222 227 232 249
c0 379 0 0.256896f
c1 375 0 0.130993f
c2 373 0 0.469067f
c3 368 0 0.470475f
c4 363 0 0.472788f
c5 354 0 2.8268f
c6 338 0 0.46935f
c7 337 0 0.23872f
c8 336 0 0.231486f
c9 335 0 0.219244f
c10 334 0 0.304369f
c11 332 0 0.273588f
c12 330 0 0.0792102f
c13 329 0 0.329567f
c14 326 0 6.54958f
c15 320 0 4.49005f
c16 319 0 0.767959f
c17 315 0 1.18024f
c18 314 0 0.751975f
c19 310 0 1.20879f
c20 309 0 0.72468f
c21 306 0 0.157001f
c22 305 0 1.19493f
c23 304 0 0.531301f
c24 303 0 0.305366f
c25 300 0 0.136486f
c26 294 0 0.0903556f
c27 286 0 0.171305f
c28 280 0 0.680566f
c29 272 0 0.534786f
c30 264 0 0.535121f
c31 256 0 0.535687f
c32 250 0 0.306758f
c33 249 0 0.278026f
c34 241 0 0.163718f
c35 240 0 0.619504f
c36 239 0 0.172465f
c37 238 0 0.615146f
c38 237 0 0.171476f
c39 236 0 0.615146f
c40 235 0 0.171476f
c41 234 0 0.551149f
c42 232 0 3.10391f
c43 227 0 3.04446f
c44 222 0 3.04443f
c45 217 0 3.04445f
c46 212 0 3.04448f
c47 207 0 3.04452f
c48 202 0 3.04448f
c49 197 0 3.10222f
r50 340 379 0.00341463 
r51 338 340 3 
r52 333 338 0.05061 
r53 333 334 0.662857 
r54 332 338 0.05061 
r55 331 332 0.202353 
r56 329 334 0.0446983 
r57 329 330 0.352857 
r58 326 375 6 
r59 324 330 0.0448488 
r60 324 326 6.78194 
r61 321 337 0.102295 
r62 320 331 0.0487211 
r63 320 321 5.332 
r64 319 337 0.0221154 
r65 318 373 0.000487805 
r66 370 318 0.055122 
r67 317 319 0.0758231 
r68 317 318 1.5 
r69 316 336 0.100797 
r70 315 337 0.102295 
r71 315 316 1.457 
r72 314 336 0.0217567 
r73 313 368 0.00292683 
r74 365 313 0.0526829 
r75 312 314 0.078061 
r76 312 313 1.5 
r77 311 335 0.0981617 
r78 310 336 0.100797 
r79 310 311 1.492 
r80 309 335 0.0211035 
r81 308 363 0.00536585 
r82 360 308 0.0502439 
r83 307 309 0.0822179 
r84 307 308 1.5 
r85 305 335 0.0981617 
r86 305 306 1.475 
r87 304 306 0.0611952 
r88 356 303 0.0521951 
r89 302 304 0.135887 
r90 302 303 3 
r91 298 375 0.130323 
r92 297 300 0.153548 
r93 297 298 0.02 
r94 294 354 6 
r95 292 300 0.02 
r96 292 294 0.132903 
r97 291 354 3.99613 
r98 290 291 0.026898 
r99 286 290 0.10143 
r100 286 249 0.106667 
r101 241 280 1.85294 
r102 240 272 5.05882 
r103 239 272 5.05882 
r104 238 264 5.05882 
r105 237 264 5.05882 
r106 236 256 5.05882 
r107 235 256 5.05882 
r108 234 250 1.85294 
r109 229 241 3.88985 
r110 229 232 183.96 
r111 224 240 3.88985 
r112 224 227 183.96 
r113 219 239 3.88985 
r114 219 222 183.96 
r115 214 238 3.88985 
r116 214 217 183.96 
r117 209 237 3.88985 
r118 209 212 183.96 
r119 204 236 3.88985 
r120 204 207 183.96 
r121 199 235 3.88985 
r122 199 202 183.96 
r123 194 234 3.88985 
r124 194 197 183.96 
r125 280 135 0.00142683 
r126 379 135 3 
r127 272 117 0.00142683 
r128 373 117 3 
r129 264 92 0.00142683 
r130 368 92 3 
r131 272 81 0.0277856 
r132 370 81 3 
r133 256 56 0.00142683 
r134 363 56 3 
r135 264 45 0.0277856 
r136 365 45 3 
r137 250 20 0.00142683 
r138 356 20 3 
r139 256 9 0.0277856 
r140 360 9 3 
.ends

.subckt PM_PC3T02D%U15_ngate 70 77 84 91 99 107 143 145 193 199
c0 245 0 16.5728f
c1 237 0 0.536127f
c2 236 0 0.726004f
c3 233 0 0.0908427f
c4 232 0 6.78558f
c5 230 0 0.207476f
c6 228 0 6.45272f
c7 225 0 0.100957f
c8 211 0 2.83504f
c9 201 0 0.609004f
c10 200 0 0.169969f
c11 199 0 3.04886f
c12 193 0 3.04886f
c13 153 0 0.39367f
c14 145 0 0.589087f
c15 143 0 0.836962f
c16 140 0 0.132932f
c17 137 0 0.140735f
c18 128 0 0.134739f
c19 125 0 1.31765f
c20 124 0 0.13479f
c21 121 0 0.815866f
c22 116 0 3.03248f
c23 114 0 0.0377296f
c24 113 0 0.0461791f
c25 112 0 0.0265254f
c26 111 0 0.0265254f
c27 107 0 0.971716f
c28 104 0 0.129321f
c29 103 0 1.63642f
c30 99 0 1.2709f
c31 96 0 0.0804526f
c32 95 0 0.252089f
c33 91 0 1.33816f
c34 88 0 0.346988f
c35 84 0 1.42004f
c36 81 0 0.25093f
c37 77 0 1.459f
c38 75 0 0.049496f
c39 74 0 0.292203f
c40 70 0 1.4301f
c41 26 0 0.464039f
r42 244 245 0.397333 
r43 243 244 4.944 
r44 240 243 2.19467 
r45 234 236 0.0753823 
r46 234 252 1.5 
r47 232 236 0.0782492 
r48 232 233 7.495 
r49 240 230 6 
r50 228 230 6 
r51 227 233 0.0449052 
r52 227 228 7.33746 
r53 223 225 0.0755556 
r54 216 223 0.02 
r55 237 208 0.00142683 
r56 205 237 0.0277856 
r57 201 237 5.05882 
r58 200 237 5.05882 
r59 195 201 3.88985 
r60 195 199 183.96 
r61 190 200 3.88985 
r62 190 193 183.96 
r63 140 145 60 
r64 140 160 3.77986 
r65 137 143 85 
r66 137 153 3.53757 
r67 128 166 0.0370021 
r68 225 128 6 
r69 125 221 2.59143 
r70 125 245 6 
r71 221 124 6 
r72 216 121 1.53143 
r73 121 244 6 
r74 153 120 0.3325 
r75 211 120 6 
r76 117 214 2.2825 
r77 211 117 1.32 
r78 117 243 6 
r79 116 160 3.7825 
r80 214 116 6 
r81 113 124 0.0613333 
r82 106 107 1.2375 
r83 105 114 0.0310989 
r84 104 106 0.044713 
r85 104 105 0.152258 
r86 103 114 0.0112231 
r87 102 113 0.0447675 
r88 102 103 3.52 
r89 166 99 1.6275 
r90 97 99 1.28 
r91 95 114 0.0310989 
r92 95 96 0.301935 
r93 90 96 0.044713 
r94 90 91 1.2375 
r95 89 112 0.0338756 
r96 88 97 0.0446983 
r97 88 89 0.51 
r98 83 112 0.00880368 
r99 83 84 1.28 
r100 82 111 0.0338756 
r101 81 112 0.0338756 
r102 81 82 0.43 
r103 76 111 0.00880368 
r104 76 77 1.415 
r105 74 111 0.0338756 
r106 74 75 0.51 
r107 69 75 0.0446983 
r108 69 70 1.415 
r109 252 26 0.00195122 
r110 26 208 3 
r111 8 252 0.0536585 
r112 8 205 3 
.ends

.subckt PM_PC3T02D%U17_ngate2 51 61 66 102 108
c0 138 0 0.535776f
c1 137 0 1.04072f
c2 133 0 0.229837f
c3 131 0 0.397413f
c4 130 0 0.0694994f
c5 129 0 0.0750899f
c6 128 0 7.57668f
c7 127 0 3.92748f
c8 121 0 0.141466f
c9 112 0 0.1586f
c10 110 0 0.609004f
c11 109 0 0.168886f
c12 108 0 3.04886f
c13 102 0 3.04886f
c14 82 0 0.311151f
c15 74 0 3.1278f
c16 73 0 0.13299f
c17 71 0 0.0822206f
c18 70 0 0.231433f
c19 66 0 0.585279f
c20 61 0 1.53003f
c21 59 0 0.0709291f
c22 58 0 0.119702f
c23 56 0 0.686907f
c24 55 0 3.59045f
c25 51 0 1.92736f
c26 26 0 0.450282f
r27 135 137 0.109567 
r28 135 147 1.5 
r29 140 133 6 
r30 131 133 6 
r31 130 131 0.55 
r32 128 137 0.0799283 
r33 128 129 8.867 
r34 127 130 0.0454198 
r35 126 129 0.0446983 
r36 126 127 5.202 
r37 121 123 0.0448391 
r38 121 122 0.0717241 
r39 138 118 0.00142683 
r40 115 138 0.0277856 
r41 112 140 0.100517 
r42 110 138 5.05882 
r43 109 138 5.05882 
r44 104 110 3.88985 
r45 104 108 183.96 
r46 99 109 3.88985 
r47 99 102 183.96 
r48 81 82 0.245 
r49 112 81 0.04 
r50 123 74 3.5675 
r51 74 82 6 
r52 122 73 6 
r53 71 73 0.0468966 
r54 65 66 0.79 
r55 60 61 1.745 
r56 58 60 0.0451268 
r57 58 59 0.124211 
r58 57 70 0.0321994 
r59 56 65 0.0447517 
r60 56 57 0.647059 
r61 55 59 0.0451268 
r62 54 71 0.0448391 
r63 54 55 5.505 
r64 50 81 0.02 
r65 50 51 2.2575 
r66 49 70 0.010241 
r67 49 51 1.98 
r68 147 26 0.00487805 
r69 26 118 3 
r70 8 147 0.0507317 
r71 8 115 3 
.ends

.subckt PM_PC3T02D%net_m67_VDDO_res 7 33
c0 33 0 1.65498f
c1 29 0 0.144591f
c2 17 0 0.183666f
c3 16 0 0.795789f
c4 15 0 1.71643f
c5 14 0 0.0799138f
c6 10 0 0.0760881f
c7 9 0 0.112197f
c8 7 0 0.369523f
r9 16 33 2.05452 
r10 16 17 8.75861 
r11 15 29 66.7742 
r12 14 29 60.5806 
r13 11 15 3.35663 
r14 11 17 11.5758 
r15 10 14 3.35347 
r16 9 10 6.625 
r17 6 9 4.5965 
r18 6 7 4.56364 
.ends

.subckt PM_PC3T02D%VDDO 321 761 766 773 780 787 794 801 808 916 937 940 947 952
+ 959 986 1051 1057 1382 1386 1389 1394 1401 1408 1429 1457 1468 1476 1484 1490
+ 1496 1502 1508 1514 1520 1526 1574 1590 1619 1624
c0 1624 0 20.8744f
c1 1616 0 4.2188f
c2 1607 0 6.89048f
c3 1598 0 8.82377f
c4 1593 0 6.16936f
c5 1590 0 50.6472f
c6 1572 0 5.91752f
c7 1568 0 2.98997f
c8 1534 0 9.65563f
c9 1526 0 1.38187f
c10 1520 0 2.71574f
c11 1514 0 1.36725f
c12 1508 0 1.72724f
c13 1502 0 1.91528f
c14 1496 0 0.823007f
c15 1490 0 1.52715f
c16 1484 0 2.4996f
c17 1481 0 3.0868f
c18 1465 0 0.505283f
c19 1461 0 30.348f
c20 1460 0 1.96564f
c21 1457 0 63.026f
c22 1456 0 1.61058f
c23 1407 0 51.3083f
c24 1397 0 0.598554f
c25 1396 0 1.41036f
c26 1394 0 3.00485f
c27 1386 0 2.50462f
c28 1368 0 0.331843f
c29 1364 0 0.149617f
c30 1358 0 0.234896f
c31 1348 0 0.619196f
c32 1344 0 0.191655f
c33 1340 0 0.616262f
c34 1334 0 3.04253f
c35 1332 0 0.689261f
c36 1327 0 2.25863f
c37 1323 0 2.34723f
c38 1319 0 2.21537f
c39 1317 0 3.50491f
c40 1316 0 0.0932697f
c41 1315 0 0.0377017f
c42 1314 0 0.0453914f
c43 1313 0 0.66627f
c44 1310 0 0.230507f
c45 1304 0 0.0919977f
c46 1267 0 9.76182f
c47 1258 0 0.88503f
c48 1076 0 0.332034f
c49 1051 0 0.457512f
c50 1010 0 4.04644f
c51 1004 0 2.47782f
c52 1000 0 0.259808f
c53 996 0 0.00598355f
c54 994 0 7.98779f
c55 993 0 3.35856f
c56 988 0 1.01894f
c57 985 0 0.0193183f
c58 983 0 0.0208492f
c59 982 0 5.63598f
c60 979 0 0.180934f
c61 969 0 0.0967705f
c62 966 0 0.0596675f
c63 965 0 3.19807f
c64 964 0 1.13143f
c65 959 0 1.44014f
c66 956 0 0.451293f
c67 952 0 1.37574f
c68 940 0 0.350992f
c69 937 0 0.67777f
c70 933 0 0.0493251f
c71 932 0 0.675078f
c72 931 0 0.0298598f
c73 930 0 0.59798f
c74 929 0 0.232943f
c75 916 0 1.15105f
c76 813 0 7.38227f
c77 801 0 0.00989968f
c78 794 0 0.0234465f
c79 787 0 0.0106158f
c80 780 0 0.0106158f
c81 773 0 0.0106158f
c82 766 0 0.00937345f
c83 761 0 7.0982f
c84 733 0 12.026f
c85 731 0 19.7205f
c86 729 0 19.7202f
c87 727 0 19.7473f
c88 725 0 19.5334f
c89 723 0 19.72f
c90 721 0 11.8055f
c91 695 0 0.114758f
c92 694 0 6.34361f
c93 691 0 0.103657f
c94 690 0 6.26978f
c95 321 0 0.613597f
c96 17 0 0.486838f
c97 16 0 6.73982f
c98 7 0 0.152029f
c99 6 0 6.75741f
r100 1619 1622 0.00394881 
r101 1616 1617 0.956244 
r102 1609 1610 0.279231 
r103 1607 1609 0.266538 
r104 1600 1601 0.273962 
r105 1598 1600 0.261509 
r106 1594 1595 1.79477 
r107 1593 1594 0.000373832 
r108 1587 1588 0.334379 
r109 1586 1587 0.0205664 
r110 1585 1586 0.0312854 
r111 1584 1585 0.0392157 
r112 1583 1584 0.0124619 
r113 1582 1583 0.0187364 
r114 1581 1582 0.0354684 
r115 1580 1581 0.0203486 
r116 1579 1580 0.0256209 
r117 1571 1572 0.0225 
r118 1570 1590 0.00304139 
r119 1588 1570 0.00174292 
r120 1568 1570 0.461538 
r121 1529 1587 0.6 
r122 1526 1529 0.4475 
r123 1523 1586 0.6 
r124 1520 1523 1.6625 
r125 1517 1585 0.666667 
r126 1514 1517 0.365 
r127 1511 1584 0.545455 
r128 1508 1511 1.4825 
r129 1505 1583 0.545455 
r130 1502 1505 1.63 
r131 1499 1582 0.75 
r132 1496 1499 0.1575 
r133 1493 1581 0.75 
r134 1490 1493 1.1525 
r135 1487 1580 0.5 
r136 1484 1487 1.455 
r137 1574 1483 0.00305011 
r138 1481 1483 0.461538 
r139 1476 1616 0.2 
r140 1472 1624 0.0039415 
r141 1622 1472 0.467422 
r142 1470 1472 0.5 
r143 1468 1470 0.181 
r144 1465 1468 0.17 
r145 1465 1588 1.5 
r146 1462 1463 0.5433 
r147 1461 1462 0.2247 
r148 1460 1476 0.0539366 
r149 1460 1463 0.099 
r150 1617 1456 0.698216 
r151 1454 1456 0.2 
r152 1454 1457 0.0136564 
r153 1610 1453 0.279231 
r154 1453 1451 0.279231 
r155 1451 1449 0.279231 
r156 1449 1447 0.266538 
r157 1445 1447 1.5 
r158 1445 1449 1.5 
r159 1445 1451 1.5 
r160 1445 1453 1.5 
r161 1445 1454 0.0314855 
r162 1601 1443 0.273962 
r163 1443 1441 0.273962 
r164 1441 1439 0.273962 
r165 1439 1437 0.261509 
r166 1435 1437 1.5 
r167 1435 1439 1.5 
r168 1435 1441 1.5 
r169 1435 1443 1.5 
r170 1595 1434 0.000747664 
r171 1432 1434 0.2 
r172 1432 1435 0.0334274 
r173 1429 1432 0.01361 
r174 1423 1609 1.5 
r175 1423 1607 1.5 
r176 1423 1610 1.5 
r177 1421 1423 0.0694058 
r178 1415 1600 1.5 
r179 1415 1598 1.5 
r180 1415 1421 0.0805639 
r181 1415 1601 1.5 
r182 1411 1593 0.2 
r183 1411 1415 0.0404834 
r184 1408 1411 0.0165962 
r185 1407 1476 0.0234268 
r186 1407 1423 0.0330312 
r187 1404 1622 0.5 
r188 1401 1404 0.181 
r189 1399 1579 0.01878 
r190 1483 1399 0.00174292 
r191 1397 1399 1.5 
r192 1397 1401 0.17 
r193 1396 1461 0.5293 
r194 1392 1394 0.0526456 
r195 1389 1392 0.0552365 
r196 1370 1373 3 
r197 1534 1370 0.0677429 
r198 1368 1370 3 
r199 1534 1360 0.1116 
r200 1565 1360 0.0028 
r201 1358 1360 6 
r202 1337 1571 6 
r203 1332 1334 6 
r204 1332 1337 0.752258 
r205 1318 1334 2.907 
r206 1316 1571 0.0575 
r207 1315 1319 1.15 
r208 1315 1316 0.055 
r209 1313 1318 0.0448005 
r210 1313 1314 0.685977 
r211 1309 1314 0.050458 
r212 1309 1310 0.12 
r213 1304 1317 0.0324243 
r214 1572 1304 8.55355 
r215 1267 1565 0.2648 
r216 1266 1565 0.2664 
r217 1265 1565 0.2664 
r218 1258 1310 7.46512 
r219 1257 1310 7.46512 
r220 1319 1074 1.03355 
r221 1074 1348 1.2 
r222 1070 1076 1 
r223 1067 1364 3 
r224 1064 1067 0.2885 
r225 1064 1344 2 
r226 1056 1057 1.337 
r227 1055 1056 1.3065 
r228 1358 1023 0.000149533 
r229 1396 1022 0.0555566 
r230 1022 1023 6 
r231 1021 1373 0.0444444 
r232 1368 1021 7.40741e-05 
r233 1396 1020 0.0279474 
r234 1020 1021 1.5 
r235 1344 1019 0.000233918 
r236 1462 1019 2 
r237 1348 1017 0.000114123 
r238 1461 1017 1.2 