* File: apv0i.dist.sp.pex
* Created: Sun Jul  4 12:05:08 2010
* Program "Calibre xRC"
* Version "v2008.4_19.14"
* Nominal Temperature: 27C
* Circuit Temperature: 27C
* 
.subckt PM_APV0I%U38_U18_r1 80 91 170 181 260 271 282 332 337 342 347 352 358
+ 465
c0 489 0 1.24906f
c1 465 0 0.33486f
c2 456 0 0.645477f
c3 452 0 0.59347f
c4 445 0 0.609333f
c5 439 0 0.593472f
c6 432 0 0.602571f
c7 426 0 0.638357f
c8 418 0 11.8376f
c9 414 0 0.448998f
c10 405 0 1.73996f
c11 400 0 3.46091f
c12 395 0 12.8098f
c13 380 0 9.63394f
c14 369 0 5.15174f
c15 368 0 0.0484104f
c16 362 0 0.597907f
c17 361 0 0.170161f
c18 360 0 0.597907f
c19 359 0 0.170161f
c20 358 0 2.37926f
c21 352 0 2.33708f
c22 347 0 2.33708f
c23 342 0 2.33708f
c24 337 0 2.33708f
c25 332 0 2.3856f
c26 282 0 2.6697f
c27 271 0 2.33708f
c28 264 0 0.170161f
c29 260 0 2.33708f
c30 259 0 0.170161f
c31 258 0 0.427745f
c32 181 0 2.33708f
c33 174 0 0.170161f
c34 170 0 2.33708f
c35 169 0 0.170161f
c36 168 0 0.427745f
c37 91 0 2.33708f
c38 84 0 0.170161f
c39 80 0 2.33708f
c40 79 0 0.170161f
c41 78 0 0.427745f
r42 488 489 0.232308 
r43 465 493 3 
r44 462 488 1.5 
r45 456 457 0.325366 
r46 455 456 0.379024 
r47 452 484 0.08875 
r48 450 452 3 
r49 450 455 0.320488 
r50 449 450 0.383902 
r51 445 480 0.08875 
r52 443 445 3 
r53 443 449 0.330244 
r54 442 443 0.374146 
r55 439 476 0.08875 
r56 437 439 3 
r57 437 442 0.32 
r58 436 437 0.38439 
r59 430 432 3 
r60 430 436 0.325854 
r61 429 430 0.378537 
r62 426 429 0.317073 
r63 425 426 0.387317 
r64 457 418 0.0721951 
r65 416 418 1.57059 
r66 425 414 1.57647 
r67 405 493 0.485806 
r68 403 405 1.5 
r69 400 403 0.9184 
r70 400 489 1.5 
r71 397 488 0.120308 
r72 395 397 1.5 
r73 394 395 3.56608 
r74 392 484 3 
r75 388 480 3 
r76 388 392 0.64678 
r77 385 476 3 
r78 385 388 0.632881 
r79 432 383 0.08875 
r80 381 383 3 
r81 381 385 0.644068 
r82 380 394 0.0447466 
r83 380 392 0.409153 
r84 369 462 0.115702 
r85 368 462 0.564848 
r86 362 449 5.05882 
r87 361 449 5.05882 
r88 360 436 5.05882 
r89 359 436 5.05882 
r90 354 416 1.5 
r91 354 358 367.92 
r92 349 362 5.28991 
r93 349 352 367.92 
r94 344 361 5.28991 
r95 344 347 367.92 
r96 339 360 5.28991 
r97 339 342 367.92 
r98 334 359 5.28991 
r99 334 337 367.92 
r100 329 414 1.5 
r101 329 332 367.92 
r102 369 287 0.0954001 
r103 287 282 1.9113 
r104 281 368 0.0954001 
r105 281 282 1.9113 
r106 455 271 363.96 
r107 264 455 3.96 
r108 259 260 367.92 
r109 258 259 5.28991 
r110 257 264 5.28991 
r111 257 258 10.1176 
r112 442 181 363.96 
r113 174 442 3.96 
r114 169 170 367.92 
r115 168 169 5.28991 
r116 167 174 5.28991 
r117 167 168 10.1176 
r118 429 91 363.96 
r119 84 429 3.96 
r120 79 80 367.92 
r121 78 79 5.28991 
r122 77 84 5.28991 
r123 77 78 10.1176 
.ends

.subckt PM_APV0I%AVSS 193 356 519 1813 1849 1857 1866 1878 1887 1893 1905 1910
+ 1942 1961 1980 1987 1992 1997 2005 2010 2015 2027 2032 2037 2040 2044 2048 2052
+ 2056 2060 2113 2120 2121 2153 2158
c0 2158 0 7.09582f
c1 2156 0 15.0269f
c2 2151 0 159.215f
c3 2113 0 1.25066f
c4 2110 0 1.86031f
c5 2105 0 1.8694f
c6 2100 0 1.84231f
c7 2094 0 1.8762f
c8 2089 0 1.85056f
c9 2084 0 1.85056f
c10 2072 0 1.85056f
c11 2067 0 1.85271f
c12 2060 0 9.82913f
c13 2056 0 9.77012f
c14 2052 0 9.77259f
c15 2048 0 9.79832f
c16 2044 0 9.77f
c17 2040 0 9.96016f
c18 2037 0 0.145467f
c19 2034 0 1.85828f
c20 2032 0 0.145467f
c21 2029 0 1.84317f
c22 2027 0 0.145467f
c23 2024 0 1.84317f
c24 2015 0 0.145467f
c25 2012 0 1.84317f
c26 2010 0 0.145467f
c27 2007 0 1.83236f
c28 2005 0 0.143573f
c29 2002 0 1.87679f
c30 1997 0 0.143573f
c31 1994 0 1.88121f
c32 1992 0 0.145467f
c33 1989 0 1.85651f
c34 1987 0 0.145458f
c35 1984 0 1.86201f
c36 1965 0 9.93561f
c37 1959 0 0.465331f
c38 1957 0 7.28715f
c39 1952 0 12.1308f
c40 1946 0 11.83f
c41 1937 0 9.5895f
c42 1933 0 156.604f
c43 1926 0 12.4148f
c44 1914 0 15.327f
c45 1908 0 0.827673f
c46 1893 0 25.4748f
c47 1884 0 9.54078f
c48 1882 0 11.4557f
c49 1881 0 29.1929f
c50 1878 0 0.212211f
c51 1875 0 0.90476f
c52 1869 0 12.578f
c53 1863 0 12.5605f
c54 1860 0 12.5612f
c55 1854 0 12.5606f
c56 1830 0 119.673f
c57 1823 0 12.4411f
c58 1821 0 64.1977f
c59 1819 0 9.49466f
c60 1817 0 12.0384f
c61 1810 0 3.21586f
c62 1808 0 0.290488f
c63 1807 0 0.763221f
c64 1804 0 0.290352f
c65 1803 0 0.768269f
c66 1742 0 3.22508f
c67 1740 0 7.75959f
c68 1737 0 5.22328f
c69 1735 0 7.99869f
c70 1451 0 0.351302f
c71 1449 0 0.386931f
c72 1446 0 9.8726f
c73 1433 0 8.18714f
c74 1417 0 1.96168f
c75 1407 0 1.85943f
c76 1319 0 0.288305f
c77 1318 0 5.23895f
c78 1251 0 0.108058f
c79 1250 0 0.0790555f
c80 1249 0 0.142394f
c81 1248 0 0.121956f
c82 1220 0 4.69693f
c83 1216 0 1.01957f
c84 1214 0 0.828814f
c85 1186 0 7.34809f
c86 1182 0 4.35425f
c87 1151 0 8.00268f
c88 1148 0 0.122725f
c89 1147 0 0.708936f
c90 1146 0 0.110778f
c91 1145 0 0.81798f
c92 1144 0 6.196f
c93 624 0 7.23642f
c94 619 0 4.50377f
c95 616 0 3.36741f
c96 529 0 7.52897f
c97 434 0 14.0018f
c98 384 0 14.0018f
c99 271 0 14.0018f
c100 221 0 14.0018f
c101 58 0 14.0018f
c102 34 0 0.366325f
c103 33 0 0.125183f
c104 26 0 0.360502f
c105 25 0 0.123171f
r106 2155 2156 0.0779158 
r107 2152 2153 0.00031852 
r108 2151 2152 0.0688681 
r109 2156 2144 0.0207951 
r110 2143 2144 0.0685015 
r111 2142 2143 0.0685015 
r112 2141 2142 0.0168807 
r113 2140 2141 0.0516208 
r114 2134 2135 0.0743731 
r115 2133 2134 0.0685015 
r116 2132 2133 0.0685015 
r117 2131 2132 0.0685015 
r118 2130 2131 0.0685015 
r119 2129 2130 0.0685015 
r120 2128 2129 0.0428135 
r121 2127 2128 0.0256881 
r122 2126 2127 0.0685015 
r123 2125 2126 0.0685015 
r124 2120 2121 0.00605505 
r125 2110 2113 0.19208 
r126 2110 2144 1.5 
r127 2105 2113 0.19208 
r128 2105 2143 1.5 
r129 2100 2113 0.19208 
r130 2100 2142 1.5 
r131 2094 2140 1.5 
r132 2094 2113 0.19208 
r133 2091 2140 0.0685015 
r134 2089 2091 1.5 
r135 2089 2113 0.19208 
r136 2086 2091 0.0685015 
r137 2084 2086 1.5 
r138 2084 2113 0.19208 
r139 2074 2086 0.0685015 
r140 2072 2074 1.5 
r141 2072 2113 0.19208 
r142 2069 2074 0.0685015 
r143 2135 2069 0.129174 
r144 2067 2069 1.5 
r145 2067 2113 0.19208 
r146 2034 2037 0.14232 
r147 2034 2134 1.5 
r148 2029 2032 0.14232 
r149 2029 2133 1.5 
r150 2024 2027 0.14232 
r151 2024 2132 1.5 
r152 2012 2015 0.14232 
r153 2012 2131 1.5 
r154 2007 2010 0.14232 
r155 2007 2130 1.5 
r156 2002 2005 0.14232 
r157 2002 2129 1.5 
r158 1994 1997 0.14232 
r159 1994 2127 1.5 
r160 1989 1992 0.14232 
r161 1989 2126 1.5 
r162 1984 1987 0.14232 
r163 1984 2125 1.5 
r164 2120 1980 0.0060274 
r165 1965 1967 0.0190476 
r166 1959 1961 0.0755 
r167 1955 1957 1.5 
r168 1952 1955 4.10259 
r169 1952 2155 0.3 
r170 1946 1949 2.00436 
r171 1946 2141 0.75 
r172 1941 1942 0.00411469 
r173 1937 2149 0.00695241 
r174 1935 1937 0.0288462 
r175 1933 1935 0.122637 
r176 1933 2135 0.0428571 
r177 1965 1931 0.00589559 
r178 1931 1933 0.0218504 
r179 1926 1929 1.95254 
r180 1926 2128 0.75 
r181 1921 1922 0.00752787 
r182 1920 1921 0.021023 
r183 1918 1920 0.000537705 
r184 1918 2151 0.00162999 
r185 1916 1918 0.000537705 
r186 1914 1916 0.0285508 
r187 1908 1910 0.132 
r188 1891 1893 0.00164455 
r189 1890 1891 0.195027 
r190 1887 1890 0.0016476 
r191 1886 1957 3.15259 
r192 1882 1884 0.0659341 
r193 1882 1885 0.0151724 
r194 1881 1967 0.0704578 
r195 1881 1885 0.366305 
r196 1876 1878 3 
r197 1875 1886 0.0447175 
r198 1875 1876 0.193571 
r199 1999 1873 2.80195 
r200 1881 1869 0.397647 
r201 1864 1866 0.130435 
r202 1881 1864 0.384385 
r203 1863 1864 0.013262 
r204 1881 1860 0.397647 
r205 1855 1857 0.130435 
r206 1881 1855 0.384385 
r207 1854 1855 0.013262 
r208 1848 1849 0.00475458 
r209 1847 2060 0.0072093 
r210 1845 1847 0.0566038 
r211 1845 1848 0.0194441 
r212 1844 2056 0.0072093 
r213 1842 1844 0.0566038 
r214 1842 1845 0.0171733 
r215 1841 2052 0.0072093 
r216 1839 1841 0.0566038 
r217 1839 1842 0.0171733 
r218 1838 2048 0.0072093 
r219 1836 1838 0.0566038 
r220 1836 1839 0.0171733 
r221 1835 2044 0.0072093 
r222 1833 1835 0.0566038 
r223 1833 1836 0.0171733 
r224 1832 2040 0.0072093 
r225 1830 1832 0.0566038 
r226 1830 1833 0.0171733 
r227 2149 1830 0.00851567 
r228 1827 1999 0.842927 
r229 1881 1823 0.397647 
r230 1821 1869 0.402139 
r231 1821 1863 0.402139 
r232 1821 1860 0.402139 
r233 1821 1854 0.402139 
r234 1821 2153 0.133736 
r235 1821 1882 0.299901 
r236 1821 1823 0.402139 
r237 1881 1820 0.34586 
r238 1817 1819 0.0659341 
r239 1817 1820 0.0115349 
r240 1821 1817 0.283721 
r241 1809 2121 0.230275 
r242 1809 1810 0.0861375 
r243 1807 1884 0.210275 
r244 1807 1808 0.0861375 
r245 1805 1980 0.229041 
r246 1803 1819 0.211872 
r247 1803 1804 0.0863581 
r248 1805 1742 0.0863581 
r249 1740 2120 0.126 
r250 1737 2120 0.126 
r251 1735 1873 0.546341 
r252 1734 2113 0.30632 
r253 1733 2113 0.30632 
r254 1732 2113 0.30632 
r255 1731 2113 0.30632 
r256 1730 2113 0.30632 
r257 1729 2113 0.30632 
r258 1728 2113 0.30632 
r259 1727 2113 0.30632 
r260 1723 2037 0.35928 
r261 1719 2010 0.35288 
r262 1718 2005 0.35288 
r263 1717 1997 0.35288 
r264 1716 1992 0.35928 
r265 1715 1827 0.522927 
r266 1714 1716 0.089172 
r267 1714 1987 0.35928 
r268 1713 2120 0.128 
r269 1712 2120 0.128 
r270 1451 1873 2 
r271 1949 1451 2 
r272 1449 1827 2 
r273 1929 1449 2 
r274 1445 1446 0.0551111 
r275 1734 1445 0.02 
r276 1444 1445 0.0497778 
r277 1733 1444 0.02 
r278 1443 1444 0.0497778 
r279 1732 1443 0.02 
r280 1442 1443 0.0497778 
r281 2113 1442 0.0339556 
r282 1731 1442 0.02 
r283 1440 2113 0.0158222 
r284 1730 1440 0.02 
r285 1439 1440 0.0497778 
r286 1729 1439 0.02 
r287 1438 1439 0.0497778 
r288 1728 1438 0.02 
r289 1437 1438 0.0497778 
r290 1727 1437 0.02 
r291 1435 1437 0.0551111 
r292 1433 2032 0.35928 
r293 1433 1723 0.089172 
r294 1432 2027 0.35928 
r295 1432 1433 0.089172 
r296 1431 2015 0.35928 
r297 1431 1432 0.089172 
r298 1430 1431 0.089172 
r299 1719 1430 0.0204618 
r300 1429 1430 0.089172 
r301 1718 1429 0.0204618 
r302 1428 1429 0.089172 
r303 1716 1428 0.089172 
r304 1717 1428 0.0204618 
r305 1724 1417 0.5605 
r306 1417 1435 0.02 
r307 1407 1446 0.02 
r308 1328 1407 0.5605 
r309 1724 1319 0.0446983 
r310 1319 1318 1.21 
r311 1318 1328 0.0446983 
r312 1735 1250 0.0420172 
r313 1715 1248 0.0517786 
r314 1999 1247 0.149647 
r315 1220 1999 0.149647 
r316 1219 1247 0.490353 
r317 1218 1220 0.487529 
r318 1217 1251 0.0412274 
r319 1216 1219 0.0447003 
r320 1216 1217 0.611429 
r321 1215 1250 0.0420172 
r322 1214 1218 0.0447171 
r323 1214 1215 0.626341 
r324 1999 1213 0.159252 
r325 1186 1999 0.159252 
r326 1185 1251 0.00319614 
r327 1185 1213 0.349159 
r328 1184 1250 0.00265108 
r329 1184 1186 0.346916 
r330 1183 1249 0.0508751 
r331 1182 1251 0.0412274 
r332 1182 1183 4.6019 
r333 1999 1178 0.122553 
r334 1151 1999 0.122553 
r335 1150 1249 0.00286573 
r336 1150 1178 0.263262 
r337 1149 1248 0.00337442 
r338 1149 1151 0.26156 
r339 1147 1249 0.0508751 
r340 1147 1148 0.579048 
r341 1145 1248 0.0517786 
r342 1145 1146 0.593171 
r343 1144 1148 0.0447003 
r344 1143 1146 0.0447171 
r345 1143 1144 4.69365 
r346 1961 632 0.0765 
r347 632 1891 0.357143 
r348 631 2158 0.00437886 
r349 2155 631 0.0140379 
r350 1959 631 0.857143 
r351 1910 628 0.008 
r352 628 1890 0.357143 
r353 1908 627 0.857143 
r354 625 2125 0.00990826 
r355 625 627 0.0340229 
r356 624 1813 0.0173663 
r357 624 627 0.0166651 
r358 619 1905 0.00154347 
r359 1941 619 0.0694444 
r360 616 1941 0.000827668 
r361 616 1848 0.12 
r362 540 543 0.0022831 
r363 1922 540 0.0375475 
r364 540 2152 0.00547945 
r365 1920 539 0.00210084 
r366 537 539 0.000537705 
r367 1916 537 0.00210084 
r368 539 535 0.0105115 
r369 1921 535 0.00712251 
r370 531 543 0.0187738 
r371 535 531 0.00376393 
r372 1922 531 0.00712251 
r373 529 537 0.0142754 
r374 1914 529 0.00356125 
r375 1869 519 0.130435 
r376 1866 434 0.00313778 
r377 1863 434 0.0652174 
r378 519 424 0.0031351 
r379 1869 424 0.0652174 
r380 384 519 0.00314046 
r381 1869 384 0.0652174 
r382 374 2120 0.0066055 
r383 1884 374 0.0141284 
r384 1885 374 0.0652174 
r385 1860 356 0.130435 
r386 1857 271 0.00313778 
r387 1854 271 0.0652174 
r388 356 261 0.0031351 
r389 1860 261 0.0652174 
r390 221 356 0.00314046 
r391 1860 221 0.0652174 
r392 211 1866 0.00313778 
r393 1863 211 0.0652174 
r394 1823 193 0.130435 
r395 108 2120 0.00657534 
r396 1819 108 0.0113242 
r397 1820 108 0.0652174 
r398 193 98 0.0031351 
r399 1823 98 0.0652174 
r400 58 193 0.00314046 
r401 1823 58 0.0652174 
r402 48 1857 0.00313778 
r403 1854 48 0.0652174 
r404 34 1810 0.132033 
r405 1740 34 0.0473573 
r406 33 1808 0.162276 
r407 33 1737 0.0473573 
r408 26 1742 0.132033 
r409 1713 26 0.0473573 
r410 25 1804 0.162276 
r411 25 1712 0.0473573 
.ends

.subckt PM_APV0I%noxref_3 8 15
c0 14 0 0.66199f
c1 13 0 0.325148f
c2 8 0 0.286951f
r3 14 16 0.02 
r4 13 15 0.0300645 
r5 13 14 0.232258 
r6 16 8 0.0278652 
.ends

.subckt PM_APV0I%U39_U31_r2 401 403 405 407 409 411 413 415 417 419 421 424 453
c0 515 0 0.440208f
c1 514 0 0.440366f
c2 513 0 0.440366f
c3 512 0 0.440366f
c4 511 0 0.440366f
c5 510 0 0.440366f
c6 509 0 0.440366f
c7 508 0 0.440366f
c8 507 0 0.440208f
c9 506 0 0.466811f
c10 503 0 8.01317f
c11 499 0 0.447719f
c12 498 0 0.447719f
c13 497 0 0.447719f
c14 496 0 0.447719f
c15 495 0 0.447719f
c16 494 0 0.447719f
c17 493 0 0.447719f
c18 492 0 0.447719f
c19 491 0 0.447719f
c20 490 0 0.474182f
c21 487 0 8.54441f
c22 485 0 12.855f
c23 476 0 0.24906f
c24 472 0 0.220767f
c25 471 0 0.0893602f
c26 468 0 1.01639f
c27 463 0 1.20359f
c28 461 0 0.108174f
c29 456 0 2.21423f
c30 453 0 0.268174f
c31 400 0 3.43769f
c32 388 0 0.0845564f
c33 300 0 0.468999f
c34 297 0 0.462864f
c35 267 0 3.25119f
c36 265 0 0.0763329f
c37 234 0 3.25159f
c38 232 0 0.0764165f
c39 215 0 3.25159f
c40 213 0 0.0764165f
c41 182 0 3.25159f
c42 180 0 0.0764165f
c43 163 0 3.22308f
c44 161 0 0.0764165f
c45 130 0 3.23499f
c46 128 0 0.0764165f
c47 111 0 3.25159f
c48 109 0 0.0764165f
c49 78 0 3.25159f
c50 76 0 0.0764165f
c51 59 0 3.25159f
c52 57 0 0.0764166f
c53 26 0 3.26753f
c54 24 0 0.0816493f
c55 7 0 3.4531f
c56 5 0 0.100654f
r57 514 515 0.277073 
r58 513 514 0.43122 
r59 512 513 0.277073 
r60 511 512 0.43122 
r61 510 511 0.277073 
r62 509 510 0.43122 
r63 508 509 0.277073 
r64 507 508 0.43122 
r65 506 507 0.277073 
r66 505 506 0.22 
r67 503 505 0.21122 
r68 498 499 0.277073 
r69 497 498 0.43122 
r70 496 497 0.277073 
r71 495 496 0.43122 
r72 494 495 0.277073 
r73 493 494 0.43122 
r74 492 493 0.277073 
r75 491 492 0.43122 
r76 490 491 0.277073 
r77 489 490 0.213171 
r78 487 489 0.218049 
r79 477 485 5.13636 
r80 476 477 3 
r81 472 485 3 
r82 471 472 0.0386395 
r83 468 505 1.5 
r84 466 471 0.0448666 
r85 466 468 0.694545 
r86 463 489 1.5 
r87 461 476 0.0241175 
r88 461 463 0.704242 
r89 456 501 3 
r90 451 453 3 
r91 451 456 0.369778 
r92 400 424 487.92 
r93 388 424 487.92 
r94 515 300 0.43122 
r95 297 501 0.0478049 
r96 499 297 0.43122 
r97 287 300 4.14706 
r98 400 287 5.28991 
r99 285 297 4.16471 
r100 388 285 5.28991 
r101 268 515 4.14706 
r102 267 421 487.92 
r103 267 268 5.28991 
r104 266 499 4.16471 
r105 265 421 487.92 
r106 265 266 5.28991 
r107 235 514 4.14706 
r108 234 419 487.92 
r109 234 235 5.28991 
r110 233 498 4.16471 
r111 232 419 487.92 
r112 232 233 5.28991 
r113 216 513 4.14706 
r114 215 417 487.92 
r115 215 216 5.28991 
r116 214 497 4.16471 
r117 213 417 487.92 
r118 213 214 5.28991 
r119 183 512 4.14706 
r120 182 415 487.92 
r121 182 183 5.28991 
r122 181 496 4.16471 
r123 180 415 487.92 
r124 180 181 5.28991 
r125 164 511 4.14706 
r126 163 413 487.92 
r127 163 164 5.28991 
r128 162 495 4.16471 
r129 161 413 487.92 
r130 161 162 5.28991 
r131 131 510 4.14706 
r132 130 411 487.92 
r133 130 131 5.28991 
r134 129 494 4.16471 
r135 128 411 487.92 
r136 128 129 5.28991 
r137 112 509 4.14706 
r138 111 409 487.92 
r139 111 112 5.28991 
r140 110 493 4.16471 
r141 109 409 487.92 
r142 109 110 5.28991 
r143 79 508 4.14706 
r144 78 407 487.92 
r145 78 79 5.28991 
r146 77 492 4.16471 
r147 76 407 487.92 
r148 76 77 5.28991 
r149 60 507 4.14706 
r150 59 405 487.92 
r151 59 60 5.28991 
r152 58 491 4.16471 
r153 57 405 487.92 
r154 57 58 5.28991 
r155 27 506 4.14706 
r156 26 403 487.92 
r157 26 27 5.28991 
r158 25 490 4.16471 
r159 24 403 487.92 
r160 24 25 5.28991 
r161 8 503 4.14706 
r162 7 401 487.92 
r163 7 8 5.28991 
r164 6 487 4.16471 
r165 5 401 487.92 
r166 5 6 5.28991 
.ends

.subckt PM_APV0I%noxref_5 8 15
c0 14 0 0.655101f
c1 13 0 0.32435f
c2 8 0 0.286238f
r3 14 16 0.02 
r4 13 15 0.0300645 
r5 13 14 0.232258 
r6 16 8 0.0278652 
.ends

.subckt PM_APV0I%AVDD 25 51 87 113 149 175 746 871 936 942 944 982 1012 1026
+ 1031 1036 1041 1046 1051 1056 1090 1124
c0 1117 0 11.0053f
c1 1113 0 11.0553f
c2 1109 0 11.0564f
c3 1105 0 11.0566f
c4 1101 0 11.0447f
c5 1097 0 11.0089f
c6 1089 0 30.4695f
c7 1086 0 1.02922f
c8 1083 0 13.542f
c9 1059 0 6.60824f
c10 1057 0 9.56316f
c11 1052 0 15.5181f
c12 1047 0 15.5181f
c13 1042 0 15.5251f
c14 1037 0 15.5207f
c15 1032 0 15.536f
c16 1027 0 9.70838f
c17 1012 0 0.00219836f
c18 1000 0 5.75365f
c19 994 0 0.313428f
c20 991 0 0.328251f
c21 982 0 2.7568f
c22 981 0 1.29921f
c23 978 0 26.9081f
c24 975 0 4.37494f
c25 973 0 1.11569f
c26 958 0 31.3305f
c27 956 0 2.0858f
c28 952 0 33.5382f
c29 950 0 4.41461f
c30 944 0 1.5585f
c31 942 0 83.5479f
c32 935 0 3.45468f
c33 932 0 2.04049f
c34 929 0 3.70745f
c35 928 0 1.1253f
c36 924 0 1.03107f
c37 905 0 17.9421f
c38 900 0 2.00655f
c39 891 0 2.12041f
c40 875 0 18.911f
c41 871 0 0.265739f
c42 746 0 2.84681f
c43 697 0 0.115491f
c44 696 0 4.53935f
c45 693 0 0.0971739f
c46 692 0 8.06101f
c47 201 0 14.0606f
c48 193 0 2.09926f
c49 175 0 3.79919f
c50 158 0 6.97025f
c51 149 0 3.79906f
c52 132 0 6.95418f
c53 113 0 3.79919f
c54 96 0 6.97015f
c55 87 0 3.79919f
c56 70 0 6.97016f
c57 51 0 3.79906f
c58 34 0 6.953f
c59 25 0 3.79919f
c60 8 0 6.96548f
r61 1121 1122 0.0191826 
r62 1089 1121 0.0766963 
r63 1089 1094 0.271876 
r64 1086 1121 0.375 
r65 1083 1086 0.19977 
r66 1071 1072 0.0553271 
r67 1056 1057 0.793846 
r68 1051 1052 0.55145 
r69 1046 1047 0.55145 
r70 1041 1042 0.55145 
r71 1036 1037 0.55145 
r72 1031 1032 0.55145 
r73 1026 1027 0.793846 
r74 1012 1023 0.159252 
r75 1059 1012 0.159252 
r76 1072 1012 0.103925 
r77 1012 1082 0.159252 
r78 1012 1071 0.11215 
r79 1011 1012 0.11215 
r80 1010 1011 0.11215 
r81 1012 1010 0.159252 
r82 1000 1012 0.159252 
r83 1117 993 0.221511 
r84 992 993 0.15 
r85 1097 989 0.221511 
r86 988 989 0.15 
r87 981 991 0.08 
r88 994 981 0.517098 
r89 978 1122 0.0857143 
r90 976 994 0.0920295 
r91 976 978 0.0130875 
r92 975 992 0.0410095 
r93 975 978 0.652608 
r94 991 973 0.178675 
r95 1113 971 0.221511 
r96 969 971 0.15 
r97 1109 968 0.221511 
r98 966 968 0.15 
r99 966 969 0.102156 
r100 1105 965 0.221511 
r101 963 965 0.15 
r102 963 966 0.102483 
r103 1101 962 0.221511 
r104 960 962 0.15 
r105 960 963 0.101774 
r106 959 988 0.00601617 
r107 959 960 0.0937517 
r108 958 992 0.00399111 
r109 958 969 0.0990996 
r110 954 956 0.75 
r111 952 954 0.245831 
r112 952 1094 0.0857143 
r113 950 988 0.0389619 
r114 950 952 0.648966 
r115 940 942 0.00069414 
r116 939 940 0.0822923 
r117 936 939 0.000721185 
r118 932 1032 1.5 
r119 926 1031 0.585344 
r120 924 926 1.5 
r121 924 928 0.00653873 
r122 924 923 0.046724 
r123 923 956 0.310392 
r124 920 935 0.0753687 
r125 920 1057 1.5 
r126 917 1052 1.5 
r127 914 1047 1.5 
r128 914 917 0.0886718 
r129 911 1072 0.139535 
r130 911 914 0.0532519 
r131 908 1042 1.5 
r132 908 911 0.0354198 
r133 905 1037 1.5 
r134 905 908 0.0886718 
r135 904 935 0.0804771 
r136 904 917 0.0235115 
r137 903 932 0.0352366 
r138 903 905 0.0534351 
r139 931 900 0.240385 
r140 900 1027 1.5 
r141 896 1056 0.842637 
r142 895 929 0.0728935 
r143 895 896 1.5 
r144 893 1026 0.842637 
r145 891 893 1.5 
r146 923 891 0.238113 
r147 889 1051 0.585344 
r148 887 889 1.5 
r149 886 1046 0.585344 
r150 884 886 1.5 
r151 884 887 0.0825586 
r152 1012 883 0.0361055 
r153 881 883 0.139535 
r154 881 884 0.0495807 
r155 880 1041 0.585344 
r156 878 880 1.5 
r157 878 881 0.032978 
r158 877 1036 0.585344 
r159 875 877 1.5 
r160 875 878 0.0825586 
r161 874 929 0.0829656 
r162 874 887 0.0194797 
r163 873 928 0.0102914 
r164 873 875 0.0657285 
r165 869 871 3 
r166 928 869 0.110276 
r167 1083 746 3.42631 
r168 715 1082 0.19514 
r169 714 1059 0.19514 
r170 697 1012 2.11181 
r171 696 715 0.0456322 
r172 696 1012 2.10217 
r173 693 1012 2.181 
r174 692 714 0.045921 
r175 692 1012 2.191 
r176 686 1023 0.19514 
r177 686 697 0.0456322 
r178 685 1000 0.19514 
r179 685 693 0.045921 
r180 202 986 0.141 
r181 982 202 0.2255 
r182 202 940 0.0925926 
r183 201 1124 0.00339499 
r184 1122 201 0.0333831 
r185 986 201 0.6 
r186 198 948 0.105 
r187 944 198 0.2245 
r188 198 939 0.0925926 
r189 197 1094 0.0391257 
r190 1090 197 0.00408015 
r191 948 197 0.6 
r192 973 193 0.75 
r193 191 932 0.00476336 
r194 191 931 0.0404771 
r195 191 193 0.374177 
r196 175 162 0.00249413 
r197 1113 162 0.0425532 
r198 158 175 0.00249413 
r199 1113 158 0.0425532 
r200 149 136 0.00249413 
r201 1117 136 0.0425532 
r202 132 149 0.00249413 
r203 1117 132 0.0425532 
r204 113 100 0.00249413 
r205 1105 100 0.0425532 
r206 96 113 0.00249413 
r207 1105 96 0.0425532 
r208 87 74 0.00249413 
r209 1109 74 0.0425532 
r210 70 87 0.00249413 
r211 1109 70 0.0425532 
r212 51 38 0.00249413 
r213 1097 38 0.0425532 
r214 34 51 0.00249413 
r215 1097 34 0.0425532 
r216 25 12 0.00249413 
r217 1101 12 0.0425532 
r218 8 25 0.00249413 
r219 1101 8 0.0425532 
.ends

.subckt PM_APV0I%AVDDO 1063 1068 1071 1077 1080 1087 1091 1098 1115 1120 1128
+ 1131 1171 1178
c0 1178 0 53.9718f
c1 1168 0 1.20619f
c2 1166 0 0.437661f
c3 1164 0 1.21374f
c4 1162 0 0.431519f
c5 1158 0 0.44416f
c6 1156 0 2.57857f
c7 1155 0 1.20995f
c8 1151 0 0.350075f
c9 1146 0 0.452004f
c10 1142 0 0.323531f
c11 1124 0 6.59869f
c12 1115 0 47.0913f
c13 1110 0 10.2002f
c14 1106 0 0.289429f
c15 1104 0 14.6477f
c16 1098 0 77.5155f
c17 1095 0 4.27915f
c18 1087 0 5.47577f
c19 1077 0 2.44899f
c20 1068 0 22.2002f
c21 981 0 2.56093f
c22 980 0 9.70308f
c23 816 0 8.81645f
c24 812 0 0.564088f
c25 471 0 0.983756f
c26 451 0 0.669337f
c27 442 0 0.478415f
c28 440 0 0.461687f
c29 438 0 0.499583f
c30 436 0 0.491371f
c31 17 0 0.123185f
c32 16 0 5.36556f
c33 7 0 0.12079f
c34 6 0 5.47438f
r35 1177 1178 0.00532381 
r36 1176 1177 0.509619 
r37 1175 1176 0.0861429 
r38 1174 1175 0.0127143 
r39 1171 1174 0.0052381 
r40 1155 1164 0.0480764 
r41 1155 1169 0.0155017 
r42 1155 1168 0.0486301 
r43 1158 1155 0.1552 
r44 1155 1156 0.0475228 
r45 1152 1155 0.164 
r46 1151 1152 0.192 
r47 1155 1151 0.0216 
r48 1147 1155 0.16392 
r49 1169 1146 0.0342356 
r50 1146 1147 0.1528 
r51 1156 1145 0.156 
r52 1155 1145 0.16408 
r53 1143 1155 0.16392 
r54 1142 1143 0.1896 
r55 1155 1142 0.024 
r56 1134 1135 0.00490432 
r57 1127 1128 0.02 
r58 1126 1127 0.00122034 
r59 1124 1126 0.00874576 
r60 1120 1122 0.188 
r61 1114 1115 0.00730249 
r62 1113 1114 0.147331 
r63 1112 1124 0.02 
r64 1112 1113 0.0977936 
r65 1109 1110 0.605944 
r66 1108 1109 0.604659 
r67 1107 1108 0.607871 
r68 1106 1107 0.440161 
r69 1104 1176 0.25 
r70 1124 1102 0.158013 
r71 1102 1104 0.771171 
r72 1101 1106 0.0448896 
r73 1101 1104 4.36757 
r74 1095 1135 0.00756545 
r75 1091 1093 0.188 
r76 1085 1087 0.000994191 
r77 1084 1085 0.0533278 
r78 1083 1084 0.0510705 
r79 1080 1083 0.00248963 
r80 1114 1076 0.078125 
r81 1076 1077 0.0030997 
r82 1113 1075 0.00284091 
r83 1075 1076 0.0625378 
r84 1122 1067 0.5 
r85 1067 1068 0.0039415 
r86 1054 1169 3 
r87 1168 1027 0.1544 
r88 1155 1027 0.164 
r89 1024 1155 0.164 
r90 1166 1024 0.156 
r91 1164 1021 0.1552 
r92 1155 1021 0.16408 
r93 1019 1155 0.16392 
r94 1162 1019 0.1596 
r95 981 1155 0.2472 
r96 980 1155 0.2472 
r97 979 1155 0.2488 
r98 978 1155 0.2488 
r99 832 833 0.209032 
r100 818 820 0.0806452 
r101 833 816 0.104516 
r102 816 832 0.104516 
r103 816 820 0.104516 
r104 816 818 0.023871 
r105 818 812 0.75 
r106 1135 812 0.75 
r107 475 1175 0.02 
r108 475 476 0.876213 
r109 471 1120 0.202 
r110 471 1177 1.5 
r111 469 1134 0.00192379 
r112 1131 469 0.00406435 
r113 469 1083 0.05 
r114 1095 467 0.0758967 
r115 467 1084 0.00189394 
r116 465 1098 0.00176827 
r117 467 465 0.0948487 
r118 465 1085 0.05 
r119 476 464 0.723314 
r120 1134 464 0.2 
r121 462 1075 0.0641088 
r122 1071 462 0.00116818 
r123 1126 462 0.078125 
r124 1127 455 0.012339 
r125 455 476 0.2 
r126 454 1067 0.467422 
r127 1063 454 0.00394881 
r128 1093 454 0.5 
r129 451 1091 0.202 
r130 451 1174 1.5 
r131 1048 447 3 
r132 447 1166 0.0314674 
r133 1155 447 0.0160554 
r134 1042 445 3 
r135 445 1162 0.0273152 
r136 1155 445 0.0177163 
r137 1036 443 3 
r138 443 1158 0.0314674 
r139 1155 443 0.016609 
r140 443 442 3 
r141 442 1036 0.0303448 
r142 1107 442 1.5 
r143 445 440 3 
r144 440 1042 0.032 
r145 1108 440 1.5 
r146 447 438 3 
r147 438 1048 0.0303448 
r148 1109 438 1.5 
r149 1169 436 3 
r150 436 1054 0.0293333 
r151 1110 436 1.5 
r152 981 17 0.0447844 
r153 17 1155 1.4363 
r154 16 980 0.0447844 
r155 16 1155 1.40926 
r156 979 7 0.0447844 
r157 7 1155 1.4363 
r158 6 978 0.0447844 
r159 6 1155 1.40926 
.ends

.subckt PM_APV0I%VSS 158 229 232 235 238 241 244 247 250 261 285 302 306 313
c0 313 0 63.6887f
c1 302 0 1.09766f
c2 295 0 0.736002f
c3 290 0 0.703553f
c4 284 0 1.40661f
c5 267 0 7.07037f
c6 261 0 1.24866f
c7 253 0 2.94467f
c8 252 0 5.99524f
c9 250 0 2.07691f
c10 247 0 2.09656f
c11 244 0 2.09455f
c12 241 0 2.04432f
c13 238 0 2.06424f
c14 235 0 2.06424f
c15 232 0 2.06424f
c16 229 0 2.07949f
c17 225 0 1.90897f
c18 223 0 1.90681f
c19 221 0 1.90681f
c20 219 0 1.90797f
c21 217 0 1.9409f
c22 215 0 1.90241f
c23 213 0 1.9252f
c24 211 0 1.91378f
c25 210 0 2.50569f
c26 208 0 2.38912f
c27 163 0 28.6149f
c28 158 0 0.145467f
c29 27 0 4.87544f
c30 26 0 0.263669f
r31 310 311 0.0877412 
r32 309 310 0.0320471 
r33 306 309 0.00127059 
r34 302 304 0.309 
r35 298 311 0.25 
r36 295 298 0.00653465 
r37 290 293 0.00746412 
r38 290 310 0.25 
r39 284 285 0.02 
r40 280 281 0.300779 
r41 276 277 0.0890656 
r42 275 276 0.0890656 
r43 274 275 0.0890656 
r44 271 272 0.0890656 
r45 270 271 0.0890656 
r46 269 270 0.0890656 
r47 266 267 0.0551111 
r48 265 266 0.0497778 
r49 264 265 0.0497778 
r50 261 262 0.0158222 
r51 260 261 0.0339556 
r52 259 260 0.0497778 
r53 258 259 0.0497778 
r54 257 258 0.0497778 
r55 255 257 0.0551111 
r56 252 277 0.0159046 
r57 252 253 0.0738956 
r58 277 250 0.35928 
r59 246 276 0.0204374 
r60 246 247 0.35288 
r61 243 275 0.0204374 
r62 243 244 0.35288 
r63 240 274 0.0204374 
r64 240 241 0.35288 
r65 272 238 0.35928 
r66 271 235 0.35928 
r67 270 232 0.35928 
r68 269 229 0.35928 
r69 227 267 0.02 
r70 225 266 0.02 
r71 225 261 0.30632 
r72 223 265 0.02 
r73 223 261 0.30632 
r74 221 264 0.02 
r75 221 261 0.30632 
r76 219 262 0.02 
r77 219 261 0.30632 
r78 217 260 0.02 
r79 217 261 0.30632 
r80 215 259 0.02 
r81 215 261 0.30632 
r82 213 258 0.02 
r83 213 261 0.30632 
r84 211 257 0.02 
r85 211 261 0.30632 
r86 210 255 0.02 
r87 209 253 0.02 
r88 208 227 0.5605 
r89 166 274 0.0827038 
r90 272 166 0.00636183 
r91 166 281 0.0833333 
r92 164 264 0.0110222 
r93 262 164 0.0387556 
r94 164 280 0.0833333 
r95 281 163 0.0834416 
r96 295 163 0.4 
r97 161 280 0.100195 
r98 293 161 0.4 
r99 209 158 0.35928 
r100 36 210 0.5605 
r101 208 27 0.0446983 
r102 26 27 1.21 
r103 26 36 0.0446983 
r104 4 313 0.00126824 
r105 311 4 0.0306118 
r106 304 4 0.25 
r107 284 1 0.297 
r108 1 309 0.25 
.ends

.subckt PM_APV0I%AVSSO 31 34 99 111 114 120 123 129 138 145
c0 143 0 1.43391f
c1 136 0 0.883784f
c2 129 0 32.042f
c3 120 0 22.0131f
c4 111 0 50.5501f
c5 109 0 3.79873f
c6 106 0 3.79255f
c7 98 0 0.593233f
c8 94 0 0.454157f
c9 45 0 7.31503f
c10 44 0 0.347747f
c11 43 0 9.85447f
c12 34 0 95.7692f
c13 17 0 8.00559f
c14 15 0 1.40208f
r15 143 145 0.259 
r16 136 138 0.286 
r17 127 129 0.00282778 
r18 126 127 0.355222 
r19 123 126 0.00305556 
r20 119 120 0.000729721 
r21 118 119 0.0415518 
r22 107 109 0.136364 
r23 104 106 0.136364 
r24 104 107 0.658075 
r25 103 104 0.000320856 
r26 98 109 0.125627 
r27 97 109 0.329541 
r28 94 106 0.126361 
r29 93 106 0.328807 
r30 98 52 0.0923344 
r31 94 51 0.0923344 
r32 46 51 0.0221996 
r33 46 47 1.28311 
r34 45 52 0.0221996 
r35 45 47 1.31511 
r36 93 44 0.0705934 
r37 44 43 5.846 
r38 43 97 0.0705934 
r39 34 119 0.0378788 
r40 32 118 0.0392177 
r41 114 32 0.00185957 
r42 31 132 0.0230832 
r43 31 32 0.0378788 
r44 145 29 0.396 
r45 29 127 0.357143 
r46 28 111 0.00544385 
r47 107 28 0.0106952 
r48 143 28 1 
r49 22 118 0.00162338 
r50 132 22 0.0868129 
r51 34 20 0.0276528 
r52 20 22 0.0927185 
r53 17 103 0.666667 
r54 15 17 1.54097 
r55 138 13 0.357 
r56 13 126 0.357143 
r57 12 103 0.0147594 
r58 99 12 0.00588235 
r59 136 12 1 
r60 10 15 0.0592597 
r61 31 9 0.0798396 
r62 9 10 0.0807018 
.ends

