* File: pt3o02.dist.sp.pex
* Created: Sun Jul  4 13:03:24 2010
* Program "Calibre xRC"
* Version "v2008.4_19.14"
* Nominal Temperature: 27C
* Circuit Temperature: 27C
* 
.subckt PM_PT3O02%noxref_2 8 18
c0 20 0 4.6446f
c1 18 0 1.0397f
c2 8 0 5.82825f
r3 18 20 0.131053 
r4 20 8 0.144632 
.ends

.subckt PM_PT3O02%PAD 21 50 91 120 161 190 254 278 302 326 356 362 431 470 494
+ 501
c0 509 0 30.3085f
c1 502 0 82.9812f
c2 501 0 64.3341f
c3 498 0 159.215f
c4 493 0 0.992829f
c5 488 0 12.1258f
c6 476 0 14.4664f
c7 467 0 0.118304f
c8 465 0 206.506f
c9 450 0 15.3329f
c10 439 0 46.9405f
c11 434 0 65.4578f
c12 432 0 15.8686f
c13 431 0 1.01632f
c14 430 0 0.217689f
c15 362 0 13.1526f
c16 356 0 13.106f
c17 326 0 13.1036f
c18 302 0 13.117f
c19 278 0 13.3644f
c20 254 0 13.1036f
c21 212 0 7.52869f
c22 190 0 2.98621f
c23 173 0 6.78371f
c24 161 0 2.98063f
c25 144 0 6.78465f
c26 120 0 2.9856f
c27 103 0 6.78371f
c28 91 0 2.98621f
c29 74 0 6.78371f
c30 50 0 2.98547f
c31 33 0 6.78371f
c32 21 0 2.9856f
c33 4 0 6.78371f
r34 509 510 0.0174349 
r35 508 509 0.100972 
r36 507 508 0.118407 
r37 506 507 0.056883 
r38 505 506 0.061524 
r39 504 505 0.118407 
r40 503 504 0.118407 
r41 501 502 0.0125879 
r42 499 501 0.0004877 
r43 498 499 0.0669731 
r44 493 494 0.00916 
r45 488 509 0.06 
r46 476 506 0.015 
r47 467 470 0.00916 
r48 467 493 2 
r49 465 476 0.0264274 
r50 463 465 0.147454 
r51 463 464 0.0288462 
r52 457 458 0.00752787 
r53 456 457 0.021023 
r54 454 456 0.000537705 
r55 454 498 0.00162999 
r56 452 454 0.000537705 
r57 450 452 0.0285508 
r58 441 493 0.1388 
r59 440 441 0.132996 
r60 439 440 0.0171733 
r61 436 437 0.0171733 
r62 435 436 0.0171733 
r63 434 435 0.0171733 
r64 433 439 0.0142401 
r65 433 437 0.00293318 
r66 432 464 0.00646891 
r67 432 434 0.00818451 
r68 430 488 0.217989 
r69 430 431 0.0147368 
r70 351 356 0.0072093 
r71 434 351 0.0566038 
r72 349 362 0.0072093 
r73 440 349 0.0566038 
r74 322 326 0.0072093 
r75 439 322 0.0566038 
r76 298 302 0.0072093 
r77 437 298 0.0566038 
r78 274 278 0.0072093 
r79 436 274 0.0566038 
r80 250 254 0.0072093 
r81 435 250 0.0566038 
r82 230 233 0.0022831 
r83 458 230 0.0375475 
r84 230 499 0.00547945 
r85 456 229 0.00210084 
r86 227 229 0.000537705 
r87 452 227 0.00210084 
r88 229 218 0.0105115 
r89 457 218 0.00712251 
r90 214 233 0.0187738 
r91 218 214 0.00376393 
r92 458 214 0.00712251 
r93 212 227 0.0142754 
r94 450 212 0.00356125 
r95 502 197 0.345778 
r96 196 508 0.0220132 
r97 196 197 0.319822 
r98 190 177 0.00249413 
r99 197 177 0.0425532 
r100 173 190 0.00249413 
r101 197 173 0.0425532 
r102 502 168 0.345778 
r103 167 510 0.0220132 
r104 167 168 0.319822 
r105 161 148 0.00249413 
r106 168 148 0.0425532 
r107 144 161 0.00249413 
r108 168 144 0.0425532 
r109 502 127 0.345778 
r110 126 505 0.0220132 
r111 126 127 0.319822 
r112 120 107 0.00249413 
r113 127 107 0.0425532 
r114 103 120 0.00249413 
r115 127 103 0.0425532 
r116 502 98 0.345778 
r117 97 507 0.0220132 
r118 97 98 0.319822 
r119 91 78 0.00249413 
r120 98 78 0.0425532 
r121 74 91 0.00249413 
r122 98 74 0.0425532 
r123 502 57 0.345778 
r124 56 503 0.0220132 
r125 56 57 0.319822 
r126 50 37 0.00249413 
r127 57 37 0.0425532 
r128 33 50 0.00249413 
r129 57 33 0.0425532 
r130 502 28 0.345778 
r131 27 504 0.0220132 
r132 27 28 0.319822 
r133 21 8 0.00249413 
r134 28 8 0.0425532 
r135 4 21 0.00249413 
r136 28 4 0.0425532 
.ends

.subckt PM_PT3O02%VSS 852 915 938 963 976 987 989 994
c0 994 0 91.0989f
c1 987 0 50.0542f
c2 975 0 65.6195f
c3 973 0 2.53063f
c4 963 0 0.00260083f
c5 960 0 1.06717f
c6 934 0 1.87197f
c7 927 0 14.8307f
c8 912 0 1.44633f
c9 877 0 0.196343f
c10 873 0 24.8191f
c11 862 0 0.0784925f
c12 861 0 0.0432851f
c13 860 0 1.9002f
c14 859 0 0.0232103f
c15 852 0 1.99611f
c16 847 0 4.26599f
c17 846 0 3.38926f
c18 842 0 0.146915f
c19 841 0 0.575164f
c20 839 0 19.7375f
c21 838 0 4.26896f
c22 837 0 0.0389222f
c23 836 0 1.81464f
c24 830 0 8.72169f
c25 827 0 0.196543f
c26 826 0 0.0905589f
c27 825 0 1.6775f
c28 697 0 1.93193f
c29 680 0 1.329f
c30 678 0 0.209129f
c31 676 0 0.270234f
c32 673 0 25.6845f
c33 670 0 2.39263f
c34 655 0 2.4022f
c35 649 0 2.03669f
c36 645 0 0.135881f
c37 644 0 2.46784f
c38 643 0 0.117466f
c39 642 0 2.24284f
c40 639 0 6.93451f
c41 595 0 0.162892f
c42 593 0 0.72248f
c43 591 0 0.204021f
c44 566 0 2.94574f
c45 552 0 3.0753f
c46 550 0 0.031054f
c47 547 0 3.11758f
c48 546 0 3.12821f
c49 545 0 0.161087f
c50 530 0 4.23112f
c51 527 0 3.01639f
r52 989 992 0.000703354 
r53 985 987 0.00318245 
r54 984 985 0.00119641 
r55 983 984 0.110269 
r56 982 983 0.0486142 
r57 981 982 0.153061 
r58 980 981 0.107717 
r59 979 980 0.09001 
r60 976 979 0.00438684 
r61 973 985 0.461538 
r62 960 963 1.28857 
r63 960 982 1.5 
r64 957 981 0.047619 
r65 941 984 0.428571 
r66 938 941 0.189 
r67 936 994 0.000702051 
r68 992 936 0.0832563 
r69 934 936 0.131579 
r70 934 938 0.013 
r71 931 932 0.572589 
r72 930 931 1.12122 
r73 927 930 0.628223 
r74 927 983 0.3 
r75 923 924 0.8265 
r76 918 979 0.428571 
r77 915 918 0.189 
r78 912 915 0.013 
r79 912 992 0.131579 
r80 860 957 2.416 
r81 860 861 0.0338756 
r82 858 957 0.052 
r83 858 859 0.0175768 
r84 855 862 0.0338756 
r85 855 856 0.099 
r86 854 861 0.0338756 
r87 852 900 2.59036 
r88 965 852 1.07807 
r89 851 862 0.00880368 
r90 851 852 0.882 
r91 850 861 0.00880368 
r92 850 852 1.062 
r93 848 975 0.0175768 
r94 848 852 0.6945 
r95 847 862 0.0338756 
r96 847 852 1.7735 
r97 846 975 0.0270064 
r98 845 859 0.0270064 
r99 845 846 4.09263 
r100 842 841 0.0577061 
r101 838 975 0.0175768 
r102 836 859 0.0175768 
r103 836 837 2.364 
r104 835 837 0.0446983 
r105 833 973 1.518 
r106 832 973 0.426 
r107 830 900 1.08482 
r108 827 965 1.06072 
r109 826 839 0.087 
r110 825 826 0.0446983 
r111 825 835 1.944 
r112 697 893 3 
r113 965 695 1 
r114 838 688 1.0165 
r115 839 688 1.2605 
r116 688 877 3 
r117 856 687 3 
r118 893 680 0.231111 
r119 931 680 1.5 
r120 687 678 0.000888889 
r121 930 678 3 
r122 676 900 3 
r123 932 676 3 
r124 673 923 0.3056 
r125 673 980 0.125 
r126 672 877 0.0005 
r127 923 672 3 
r128 670 695 0.00750563 
r129 699 670 0.056042 
r130 924 670 0.24 
r131 842 668 0.078239 
r132 873 668 1 
r133 666 873 0.9634 
r134 666 699 0.020015 
r135 655 856 1.291 
r136 833 655 0.0446983 
r137 654 697 0.835122 
r138 653 697 0.56878 
r139 648 649 1.37048 
r140 645 654 0.0448242 
r141 645 646 0.678222 
r142 644 649 0.0447675 
r143 644 646 0.650667 
r144 643 653 0.0446983 
r145 642 648 0.0447067 
r146 642 643 1.45854 
r147 639 854 1.39 
r148 639 832 0.0446983 
r149 594 595 0.147619 
r150 590 591 0.14988 
r151 830 590 0.0380723 
r152 587 589 0.143333 
r153 827 586 0.0385542 
r154 584 586 0.14506 
r155 852 583 0.159 
r156 566 852 0.159 
r157 565 595 0.02 
r158 565 583 1.247 
r159 564 591 0.02 
r160 564 566 1.243 
r161 852 563 0.192 
r162 561 852 0.192 
r163 560 561 0.342 
r164 852 560 0.192 
r165 558 852 0.192 
r166 557 558 0.342 
r167 852 557 0.192 
r168 555 852 0.192 
r169 554 555 0.342 
r170 852 554 0.192 
r171 552 852 0.192 
r172 551 594 0.02 
r173 551 563 1.214 
r174 550 593 0.04 
r175 550 552 0.243 
r176 548 590 0.02 
r177 548 593 0.938734 
r178 668 547 0.102486 
r179 546 594 0.0380952 
r180 546 547 4.80524 
r181 545 841 0.555238 
r182 545 589 0.0380952 
r183 852 541 0.159 
r184 539 852 0.159 
r185 538 539 0.408 
r186 852 538 0.159 
r187 536 852 0.159 
r188 535 536 0.408 
r189 852 535 0.159 
r190 533 852 0.159 
r191 532 533 0.408 
r192 852 532 0.159 
r193 530 852 0.159 
r194 529 589 0.02 
r195 529 541 1.247 
r196 528 586 0.02 
r197 528 530 1.243 
r198 527 587 0.02 
r199 526 584 0.02 
r200 526 527 4.69271 
.ends

.subckt PM_PT3O02%U29_U76_r1 90 95 206 211 216 222 246
c0 328 0 0.464491f
c1 323 0 0.464667f
c2 306 0 0.705179f
c3 300 0 0.0934342f
c4 299 0 0.225365f
c5 298 0 0.224252f
c6 295 0 0.29507f
c7 291 0 0.499244f
c8 289 0 6.95004f
c9 287 0 0.31258f
c10 284 0 5.78401f
c11 283 0 0.788843f
c12 279 0 1.19856f
c13 278 0 0.785499f
c14 275 0 0.181486f
c15 274 0 1.16104f
c16 273 0 0.62693f
c17 272 0 0.29516f
c18 270 0 16.2563f
c19 267 0 0.154469f
c20 261 0 1.7409f
c21 259 0 0.868064f
c22 250 0 0.060459f
c23 249 0 0.112142f
c24 245 0 0.290636f
c25 237 0 0.534324f
c26 231 0 0.304601f
c27 226 0 0.160334f
c28 225 0 0.617234f
c29 224 0 0.171644f
c30 223 0 0.55336f
c31 222 0 3.10338f
c32 216 0 3.04449f
c33 211 0 3.04447f
c34 206 0 3.10208f
c35 158 0 0.272757f
c36 105 0 0.979764f
c37 95 0 3.04449f
c38 94 0 0.172394f
c39 90 0 3.04448f
c40 89 0 0.172385f
r41 295 330 3 
r42 293 300 0.0044454 
r43 293 295 0.147317 
r44 291 335 0.103836 
r45 289 291 3 
r46 288 300 0.0394702 
r47 288 289 4.09 
r48 287 300 0.0394702 
r49 286 287 0.203529 
r50 285 299 0.0994956 
r51 284 286 0.0487211 
r52 284 285 6.851 
r53 283 299 0.0214377 
r54 282 328 0.00292683 
r55 325 282 0.0526829 
r56 281 283 0.0800809 
r57 281 282 1.5 
r58 280 298 0.0992555 
r59 279 299 0.0994956 
r60 279 280 1.479 
r61 278 298 0.0213781 
r62 277 323 0.00536585 
r63 320 277 0.0502439 
r64 276 278 0.0804589 
r65 276 277 1.5 
r66 274 298 0.0992555 
r67 274 275 1.433 
r68 273 275 0.0661591 
r69 316 272 0.0521951 
r70 271 273 0.11639 
r71 271 272 3 
r72 310 270 1.5 
r73 268 270 6 
r74 267 335 0.0265985 
r75 267 268 0.0153846 
r76 264 310 6 
r77 259 261 6 
r78 259 264 1.65548 
r79 258 261 3.24387 
r80 253 306 0.00142683 
r81 249 258 0.0446983 
r82 249 250 0.130323 
r83 245 250 0.0664522 
r84 245 246 0.0466667 
r85 226 306 1.85294 
r86 225 237 5.05882 
r87 224 237 5.05882 
r88 223 231 1.85294 
r89 218 226 3.88985 
r90 218 222 183.96 
r91 213 225 3.88985 
r92 213 216 183.96 
r93 208 224 3.88985 
r94 208 211 183.96 
r95 203 223 3.88985 
r96 203 206 183.96 
r97 330 158 0.00341463 
r98 158 253 3 
r99 237 134 0.00142683 
r100 328 134 3 
r101 100 105 5.05882 
r102 99 105 5.05882 
r103 94 100 3.88985 
r104 94 95 183.96 
r105 89 99 3.88985 
r106 89 90 183.96 
r107 231 60 0.00142683 
r108 316 60 3 
r109 105 49 0.00133393 
r110 320 49 3 
r111 24 105 0.0278113 
r112 323 24 3 
r113 237 13 0.0277856 
r114 325 13 3 
.ends

.subckt PM_PT3O02%U30_ngate2 68 78 83 90 145 151
c0 192 0 0.546064f
c1 184 0 0.536115f
c2 183 0 1.04876f
c3 180 0 0.0725204f
c4 179 0 6.79423f
c5 175 0 4.57258f
c6 164 0 0.140514f
c7 155 0 0.152537f
c8 153 0 0.609392f
c9 152 0 0.17014f
c10 151 0 3.04886f
c11 145 0 3.04886f
c12 122 0 0.311143f
c13 117 0 12.4616f
c14 107 0 0.634339f
c15 106 0 3.22455f
c16 101 0 3.10549f
c17 100 0 0.13299f
c18 98 0 0.0378602f
c19 95 0 0.0822206f
c20 94 0 0.150794f
c21 90 0 0.515156f
c22 88 0 0.0323831f
c23 87 0 0.0334272f
c24 83 0 0.477884f
c25 78 0 1.52459f
c26 76 0 0.0713867f
c27 75 0 0.119715f
c28 73 0 0.443097f
c29 72 0 3.58053f
c30 68 0 1.83827f
c31 33 0 0.451474f
r32 187 192 6 
r33 181 183 0.120342 
r34 181 196 1.5 
r35 179 183 0.0777084 
r36 179 180 7.241 
r37 177 192 0.586316 
r38 175 177 6 
r39 174 180 0.0446983 
r40 174 175 5.21 
r41 166 169 0.58625 
r42 164 166 0.0448391 
r43 164 165 0.0717241 
r44 184 161 0.00142683 
r45 158 184 0.0277856 
r46 155 187 0.11875 
r47 153 184 5.05882 
r48 152 184 5.05882 
r49 147 153 3.88985 
r50 147 151 183.96 
r51 142 152 3.88985 
r52 142 145 183.96 
r53 121 122 0.245 
r54 155 121 0.04 
r55 107 172 0.742857 
r56 107 117 6 
r57 172 106 6 
r58 104 117 1.12267 
r59 169 104 6 
r60 101 169 2.98125 
r61 101 122 6 
r62 165 100 6 
r63 96 106 4.21429 
r64 95 100 0.0468966 
r65 98 90 0.545714 
r66 88 98 0.0464898 
r67 87 96 0.0464898 
r68 87 88 0.0430769 
r69 82 83 0.79 
r70 77 78 1.745 
r71 75 77 0.0451268 
r72 75 76 0.124211 
r73 74 94 0.0321994 
r74 73 82 0.0447517 
r75 73 74 0.647059 
r76 72 76 0.0451268 
r77 71 95 0.0448391 
r78 71 72 5.505 
r79 67 121 0.02 
r80 67 68 2.2575 
r81 66 94 0.010241 
r82 66 68 1.98 
r83 196 33 0.00195122 
r84 33 161 3 
r85 8 196 0.0536585 
r86 8 158 3 
.ends

.subckt PM_PT3O02%U29_U37_r2 22 41 72 91 152 155 171
c0 268 0 0.897249f
c1 259 0 4.10794f
c2 255 0 0.306609f
c3 253 0 0.323081f
c4 252 0 0.32269f
c5 250 0 0.32269f
c6 246 0 3.39939f
c7 244 0 16.1046f
c8 238 0 0.293407f
c9 234 0 0.309998f
c10 233 0 0.309607f
c11 229 0 0.309607f
c12 223 0 3.59344f
c13 219 0 15.7694f
c14 212 0 0.294032f
c15 206 0 7.50192f
c16 200 0 0.256042f
c17 198 0 5.43207f
c18 192 0 0.404262f
c19 190 0 0.917291f
c20 181 0 4.74246f
c21 177 0 0.365209f
c22 171 0 0.324211f
c23 170 0 0.0658877f
c24 147 0 5.08533f
c25 146 0 0.433603f
c26 143 0 0.337763f
c27 140 0 0.309862f
c28 117 0 4.93087f
c29 115 0 0.107369f
c30 113 0 0.125774f
c31 76 0 4.96755f
c32 74 0 0.133023f
c33 57 0 4.91695f
c34 55 0 0.105999f
c35 26 0 4.92236f
c36 24 0 0.105999f
c37 7 0 4.92236f
c38 5 0 0.105999f
r39 262 263 0.708293 
r40 252 253 0.32839 
r41 251 252 0.219512 
r42 250 251 0.16039 
r43 246 248 0.189756 
r44 241 244 0.837333 
r45 241 268 6 
r46 236 238 0.219512 
r47 236 263 6 
r48 234 236 0.160878 
r49 233 234 0.327902 
r50 230 262 6 
r51 230 233 0.219512 
r52 229 230 0.160878 
r53 227 262 0.707317 
r54 259 227 0.600976 
r55 225 227 6 
r56 223 225 0.158049 
r57 268 221 1.064 
r58 219 221 6 
r59 216 219 13.8293 
r60 211 212 3 
r61 206 221 6 
r62 206 211 4.22645 
r63 203 259 6 
r64 216 200 6 
r65 198 200 6 
r66 198 203 5.18 
r67 195 244 6 
r68 190 192 6 
r69 190 195 1.41161 
r70 188 255 0.219512 
r71 253 188 0.16039 
r72 186 188 6 
r73 183 251 6 
r74 183 186 0.708293 
r75 181 183 0.682927 
r76 181 248 6 
r77 179 181 0.683902 
r78 178 212 0.022693 
r79 177 179 0.045829 
r80 177 178 0.150968 
r81 174 192 0.643871 
r82 170 174 0.055223 
r83 170 171 0.109189 
r84 147 152 394.95 
r85 146 246 2.85294 
r86 146 147 1.5 
r87 143 250 0.32839 
r88 248 143 0.194146 
r89 140 229 0.327902 
r90 225 140 0.218537 
r91 118 143 2.04706 
r92 117 155 394.95 
r93 117 118 4.2601 
r94 116 140 2.04706 
r95 115 155 394.95 
r96 115 116 4.2601 
r97 114 223 2.07059 
r98 113 152 394.95 
r99 113 114 4.2601 
r100 77 255 2.07647 
r101 76 91 394.95 
r102 76 77 4.2601 
r103 75 238 2.07647 
r104 74 91 394.95 
r105 74 75 4.2601 
r106 58 253 2.07647 
r107 57 72 394.95 
r108 57 58 4.2601 
r109 56 234 2.07647 
r110 55 72 394.95 
r111 55 56 4.2601 
r112 27 252 2.07647 
r113 26 41 394.95 
r114 26 27 4.2601 
r115 25 233 2.07647 
r116 24 41 394.95 
r117 24 25 4.2601 
r118 8 250 2.07647 
r119 7 22 394.95 
r120 7 8 4.2601 
r121 6 229 2.07647 
r122 5 22 394.95 
r123 5 6 4.2601 
.ends

.subckt PM_PT3O02%pgate 18 37 68 87 151 153 172 174 181 188 197 227
c0 319 0 15.8012f
c1 304 0 0.391813f
c2 301 0 0.309607f
c3 299 0 0.309607f
c4 298 0 0.309607f
c5 295 0 3.59996f
c6 291 0 0.494903f
c7 282 0 10.3224f
c8 277 0 4.50575f
c9 265 0 3.82441f
c10 259 0 2.22672f
c11 249 0 3.6644f
c12 247 0 0.0977284f
c13 246 0 0.534181f
c14 227 0 0.00463128f
c15 225 0 2.78132f
c16 216 0 0.195642f
c17 214 0 15.7083f
c18 210 0 0.028277f
c19 208 0 0.0231968f
c20 206 0 0.028277f
c21 197 0 1.38868f
c22 194 0 0.346041f
c23 192 0 0.358918f
c24 188 0 1.12632f
c25 185 0 0.186859f
c26 181 0 1.97094f
c27 179 0 0.0466238f
c28 178 0 0.288391f
c29 174 0 2.76889f
c30 172 0 1.44198f
c31 149 0 5.10449f
c32 145 0 0.419276f
c33 140 0 4.81603f
c34 139 0 0.3815f
c35 127 0 0.370539f
c36 84 0 0.32269f
c37 72 0 4.92236f
c38 70 0 0.105999f
c39 65 0 0.32269f
c40 53 0 4.92236f
c41 51 0 0.105999f
c42 34 0 0.32269f
c43 22 0 4.92236f
c44 20 0 0.105999f
c45 15 0 3.76841f
c46 3 0 5.00107f
c47 1 0 0.129834f
r48 301 302 0.323902 
r49 298 299 0.327902 
r50 291 319 0.342857 
r51 289 291 6 
r52 280 282 6 
r53 277 280 5.68571 
r54 277 319 6 
r55 275 282 9.5181 
r56 272 314 6 
r57 269 272 0.708293 
r58 269 311 6 
r59 265 269 0.708293 
r60 265 308 6 
r61 259 261 2.3 
r62 258 304 0.219512 
r63 302 258 0.164878 
r64 256 258 6 
r65 255 301 0.219512 
r66 299 255 0.160878 
r67 253 255 6 
r68 253 256 0.708293 
r69 251 298 0.219512 
r70 295 251 0.160878 
r71 249 251 6 
r72 249 253 0.708293 
r73 248 256 0.419512 
r74 247 275 0.0463653 
r75 246 248 0.0462628 
r76 246 247 0.275254 
r77 225 227 4.4225 
r78 259 216 6 
r79 289 214 4.34933 
r80 261 214 6 
r81 261 211 1.4 
r82 211 225 6 
r83 209 227 1.3875 
r84 209 210 0.00880368 
r85 207 216 0.185 
r86 207 208 0.0373215 
r87 196 197 1.3625 
r88 195 210 0.0338756 
r89 194 201 0.0446983 
r90 194 195 0.51 
r91 193 208 0.00604629 
r92 192 196 0.0448998 
r93 192 193 0.453333 
r94 187 208 0.0373215 
r95 187 188 1.3625 
r96 186 206 0.0338756 
r97 185 210 0.0338756 
r98 185 186 0.3825 
r99 180 206 0.00880368 
r100 180 181 2.485 
r101 178 206 0.0338756 
r102 178 179 0.51 
r103 173 179 0.0446983 
r104 173 174 2.485 
r105 201 172 1.3875 
r106 149 153 394.95 
r107 148 149 1.5 
r108 314 145 0.219512 
r109 145 148 2.81176 
r110 142 314 0.16439 
r111 140 151 394.95 
r112 139 142 2.74706 
r113 139 140 1.5 
r114 137 153 394.95 
r115 304 136 2.78235 
r116 136 137 1.5 
r117 128 151 394.95 
r118 127 302 2.74706 
r119 127 128 1.5 
r120 84 142 0.32439 
r121 311 84 0.219512 
r122 73 84 2.07647 
r123 72 87 394.95 
r124 72 73 4.2601 
r125 71 301 2.07647 
r126 70 87 394.95 
r127 70 71 4.2601 
r128 65 311 0.16039 
r129 54 65 2.07647 
r130 53 68 394.95 
r131 53 54 4.2601 
r132 52 299 2.07647 
r133 51 68 394.95 
r134 51 52 4.2601 
r135 34 65 0.32839 
r136 308 34 0.219512 
r137 23 34 2.07647 
r138 22 37 394.95 
r139 22 23 4.2601 
r140 21 298 2.07647 
r141 20 37 394.95 
r142 20 21 4.2601 
r143 15 308 0.16039 
r144 4 15 2.07647 
r145 3 18 394.95 
r146 3 4 4.2601 
r147 2 295 2.07647 
r148 1 18 394.95 
r149 1 2 4.2601 
.ends

.subckt PM_PT3O02%VDDO 875 880 887 894 901 908 915 922 1005 1008 1013 1070 1259
+ 1316 1320 1323 1328 1334 1341 1362 1390 1404 1412 1419 1425 1431 1437 1479 1490
+ 1519 1524
c0 1524 0 20.5457f
c1 1516 0 4.71538f
c2 1507 0 6.80765f
c3 1498 0 8.85211f
c4 1493 0 9.05307f
c5 1490 0 45.2318f
c6 1476 0 2.98997f
c7 1437 0 2.70864f
c8 1431 0 2.66686f
c9 1425 0 0.805165f
c10 1419 0 1.42934f
c11 1416 0 3.06423f
c12 1401 0 0.505102f
c13 1394 0 30.5575f
c14 1393 0 1.9743f
c15 1390 0 62.7002f
c16 1389 0 2.02603f
c17 1340 0 50.7157f
c18 1331 0 0.657595f
c19 1328 0 3.02655f
c20 1320 0 2.50223f
c21 1307 0 1.82143f
c22 1305 0 0.234795f
c23 1295 0 0.149549f
c24 1293 0 0.381988f
c25 1287 0 0.103936f
c26 1277 0 0.193678f
c27 1273 0 0.521522f
c28 1268 0 2.49198f
c29 1263 0 0.0595024f
c30 1262 0 0.105033f
c31 1258 0 0.290708f
c32 1226 0 10.3684f
c33 1225 0 9.76182f
c34 1081 0 0.33717f
c35 1064 0 11.5804f
c36 1042 0 0.210309f
c37 1038 0 2.09947f
c38 1034 0 2.88234f
c39 1028 0 7.62276f
c40 1027 0 4.59836f
c41 1025 0 0.0193183f
c42 1024 0 4.36576f
c43 1019 0 0.0933881f
c44 1013 0 4.09112e-19
c45 1012 0 2.5838f
c46 1008 0 1.44145f
c47 1005 0 0.49357f
c48 1003 0 0.0676305f
c49 1002 0 0.142336f
c50 927 0 7.18852f
c51 922 0 0.0208826f
c52 915 0 0.0106455f
c53 908 0 0.0106455f
c54 901 0 0.0234474f
c55 894 0 0.0106455f
c56 887 0 0.0106455f
c57 880 0 0.00830585f
c58 875 0 8.15862f
c59 847 0 11.8231f
c60 845 0 19.4159f
c61 843 0 19.4159f
c62 841 0 19.264f
c63 839 0 19.4159f
c64 837 0 19.4159f
c65 835 0 11.7227f
c66 809 0 0.16066f
c67 808 0 6.58651f
c68 805 0 0.115779f
c69 804 0 6.18181f
c70 21 0 0.152029f
c71 20 0 6.70216f
c72 11 0 0.152029f
c73 10 0 6.75738f
r74 1519 1522 0.00394881 
r75 1516 1517 0.951776 
r76 1509 1510 0.279231 
r77 1507 1509 0.266538 
r78 1500 1501 0.273962 
r79 1498 1500 0.261509 
r80 1494 1495 1.79477 
r81 1493 1494 0.000373832 
r82 1487 1488 0.419521 
r83 1486 1487 0.0205664 
r84 1485 1486 0.0242266 
r85 1484 1485 0.0354684 
r86 1483 1484 0.0570806 
r87 1478 1490 0.00304139 
r88 1488 1478 0.00174292 
r89 1476 1478 0.461538 
r90 1440 1487 0.6 
r91 1437 1440 1.6625 
r92 1434 1486 0.6 
r93 1431 1434 1.6625 
r94 1428 1485 0.75 
r95 1425 1428 0.1575 
r96 1422 1484 0.75 
r97 1419 1422 1.1525 
r98 1418 1483 0.00174292 
r99 1479 1418 0.00305011 
r100 1416 1418 0.461538 
r101 1412 1516 0.2 
r102 1408 1524 0.0039415 
r103 1522 1408 0.467422 
r104 1406 1408 0.5 
r105 1404 1406 0.181 
r106 1401 1404 0.17 
r107 1401 1488 1.5 
r108 1398 1399 0.5433 
r109 1397 1398 0.2287 
r110 1396 1397 0.56298 
r111 1394 1396 0.0036 
r112 1393 1412 0.0528252 
r113 1393 1399 0.099 
r114 1517 1389 0.741308 
r115 1387 1389 0.181818 
r116 1387 1390 0.0136564 
r117 1510 1386 0.279231 
r118 1386 1384 0.279231 
r119 1384 1382 0.279231 
r120 1382 1380 0.266538 
r121 1378 1380 1.5 
r122 1378 1382 1.5 
r123 1378 1384 1.5 
r124 1378 1386 1.5 
r125 1378 1387 0.0314855 
r126 1501 1376 0.273962 
r127 1376 1374 0.273962 
r128 1374 1372 0.273962 
r129 1372 1370 0.261509 
r130 1368 1370 1.5 
r131 1368 1372 1.5 
r132 1368 1374 1.5 
r133 1368 1376 1.5 
r134 1495 1367 0.000747664 
r135 1365 1367 0.2 
r136 1365 1368 0.0334274 
r137 1362 1365 0.01361 
r138 1356 1509 1.5 
r139 1356 1507 1.5 
r140 1356 1510 1.5 
r141 1354 1356 0.0694058 
r142 1348 1500 1.5 
r143 1348 1498 1.5 
r144 1348 1354 0.0805639 
r145 1348 1501 1.5 
r146 1344 1493 0.2 
r147 1344 1348 0.0404834 
r148 1341 1344 0.0165962 
r149 1340 1412 0.0245381 
r150 1340 1356 0.0330312 
r151 1337 1522 0.5 
r152 1334 1337 0.181 
r153 1331 1334 0.17 
r154 1331 1483 1.5 
r155 1326 1328 0.0526456 
r156 1323 1326 0.0552365 
r157 1305 1307 6 
r158 1304 1305 0.565161 
r159 1293 1304 0.0564739 
r160 1289 1302 0.1836 
r161 1470 1289 0.0028 
r162 1287 1289 6 
r163 1265 1307 3.20516 
r164 1262 1265 0.0446983 
r165 1262 1263 0.112258 
r166 1258 1263 0.0664522 
r167 1258 1259 0.0466667 
r168 1226 1302 0.0784 
r169 1225 1470 0.2648 
r170 1224 1470 0.2664 
r171 1223 1470 0.2664 
r172 1079 1081 1 
r173 1076 1295 3 
r174 1073 1076 0.2885 
r175 1073 1277 2 
r176 1070 1073 2.755 
r177 1062 1064 3.90065 
r178 1060 1062 5.74839 
r179 1277 1050 0.000233918 
r180 1398 1050 2 
r181 1287 1048 0.000149533 
r182 1396 1048 6 
r183 1081 1046 0.000100503 
r184 1399 1046 1 
r185 1064 1044 2 
r186 1293 1044 0.0369231 
r187 1397 1044 2 
r188 1042 1302 1.5 
r189 1394 1042 1.5 
r190 1295 1040 0.000299625 
r191 1398 1040 3 
r192 1273 1038 6 
r193 1273 1035 0.742857 
r194 1035 1062 6 
r195 1268 1034 3 
r196 1031 1271 3.25857 
r197 1268 1031 0.562857 
r198 1031 1060 6 
r199 1271 1030 6 
r200 1028 1079 0.217284 
r201 1027 1076 0.0845 
r202 1026 1038 4.30714 
r203 1024 1030 0.528 
r204 1024 1025 0.0149881 
r205 1023 1070 0.203 
r206 1023 1025 0.0149881 
r207 1022 1034 3.38061 
r208 1019 1030 2.449 
r209 1018 1476 0.526 
r210 1018 1028 0.0447005 
r211 1017 1476 2.122 
r212 1017 1027 0.0446983 
r213 1012 1026 0.0448488 
r214 1012 1013 3.6271 
r215 1007 1025 0.0313149 
r216 1007 1008 1.51 
r217 1004 1005 0.21697 
r218 1003 1022 0.0446983 
r219 1002 1004 0.0446983 
r220 1002 1003 0.225455 
r221 992 1416 2.122 
r222 992 1019 0.0446983 
r223 927 875 0.159252 
r224 938 875 0.159252 
r225 875 945 0.159252 
r226 849 938 0.0829907 
r227 875 849 0.0291589 
r228 1517 849 0.1 
r229 880 847 0.793846 
r230 1507 847 1.5 
r231 887 845 0.55145 
r232 1509 845 1.5 
r233 894 843 0.55145 
r234 1510 843 1.5 
r235 901 841 0.55145 
r236 1386 841 1.5 
r237 908 839 0.55145 
r238 1384 839 1.5 
r239 915 837 0.55145 
r240 1382 837 1.5 
r241 922 835 0.793846 
r242 1380 835 1.5 
r243 833 880 0.842637 
r244 1498 833 1.5 
r245 831 887 0.585344 
r246 1500 831 1.5 
r247 829 894 0.585344 
r248 1501 829 1.5 
r249 827 901 0.585344 
r250 1376 827 1.5 
r251 825 908 0.585344 
r252 1374 825 1.5 
r253 823 915 0.585344 
r254 1372 823 1.5 
r255 821 922 0.842637 
r256 1370 821 1.5 
r257 875 819 0.0391734 
r258 1495 819 0.2 
r259 817 875 0.0397569 
r260 1494 817 0.2 
r261 815 945 0.73271 
r262 814 927 0.737944 
r263 813 875 0.73271 
r264 812 875 0.737944 
r265 809 813 0.0451326 
r266 809 875 2.504 
r267 808 815 0.0451326 
r268 808 875 2.44889 
r269 805 812 0.045921 
r270 805 875 2.687 
r271 804 814 0.045921 
r272 804 875 2.885 
r273 441 1378 0.0601494 
r274 1368 441 0.0634357 
r275 441 1326 0.00227273 
r276 440 1320 0.0620926 
r277 1316 440 0.0688218 
r278 1354 440 0.0025 
r279 1226 21 0.0447329 
r280 21 1470 1.51848 
r281 20 1225 0.0447329 
r282 20 1470 1.51162 
r283 1224 11 0.0447329 
r284 11 1470 1.51848 
r285 10 1223 0.0447329 
r286 10 1470 1.51162 
.ends

.subckt PM_PT3O02%VSSO 173 336 499 566 585 840 844 851 882 889 901 912 914 917
+ 922 928 934 940 949 955 961 970 980 988 991 1041 1044 1050
c0 1050 0 31.6721f
c1 1041 0 31.2027f
c2 1033 0 7.84696f
c3 1031 0 6.95693f
c4 1025 0 6.9588f
c5 1020 0 6.96055f
c6 1014 0 6.99581f
c7 1009 0 6.99576f
c8 983 0 8.95235f
c9 980 0 0.29997f
c10 961 0 1.3628f
c11 955 0 1.39344f
c12 940 0 1.58862f
c13 934 0 1.43956f
c14 928 0 0.896471f
c15 922 0 1.55568f
c16 917 0 1.69038f
c17 914 0 0.00103378f
c18 912 0 8.25608e-19
c19 910 0 8.96457f
c20 899 0 7.86143f
c21 895 0 1.27875f
c22 885 0 1.67517f
c23 882 0 58.2432f
c24 859 0 6.30592f
c25 847 0 1.20007f
c26 844 0 10.6216f
c27 837 0 0.33645f
c28 836 0 13.026f
c29 829 0 2.39998f
c30 822 0 0.708327f
c31 821 0 3.25201f
c32 819 0 0.383003f
c33 818 0 0.713156f
c34 817 0 0.29213f
c35 816 0 3.2607f
c36 815 0 0.383249f
c37 785 0 0.123501f
c38 784 0 8.87012f
c39 754 0 0.264591f
c40 750 0 7.03694f
c41 747 0 0.146306f
c42 587 0 0.509108f
c43 585 0 0.378532f
c44 584 0 0.141815f
c45 582 0 0.345843f
c46 566 0 0.114597f
c47 414 0 14.0342f
c48 364 0 14.0345f
c49 251 0 14.0467f
c50 201 0 14.036f
c51 38 0 14.0467f
c52 14 0 0.146306f
r53 1048 1050 0.00282778 
r54 1047 1048 0.355444 
r55 1044 1047 0.00283333 
r56 1038 1039 0.185508 
r57 1037 1038 0.0396791 
r58 1002 1003 0.0140639 
r59 999 1000 0.0253476 
r60 998 999 0.0187166 
r61 997 998 0.0203209 
r62 996 997 0.0213904 
r63 995 996 0.0744385 
r64 987 988 0.0126606 
r65 1033 985 0.0113761 
r66 983 985 0.0638298 
r67 977 980 0.0335135 
r68 977 1039 2 
r69 964 1038 0.6 
r70 961 964 0.285 
r71 958 1037 0.6 
r72 955 958 0.32 
r73 943 1000 0.6 
r74 940 943 0.9975 
r75 937 999 0.6 
r76 934 937 0.995 
r77 931 998 0.6 
r78 928 931 0.194286 
r79 925 997 0.6 
r80 922 925 0.3175 
r81 919 996 0.666667 
r82 917 919 0.96 
r83 912 987 0.013211 
r84 983 912 0.000917431 
r85 910 912 0.000913242 
r86 910 1002 0.0638298 
r87 900 901 0.02 
r88 899 1002 0.0113242 
r89 897 899 0.0327869 
r90 897 900 0.0166784 
r91 895 897 0.029258 
r92 892 1048 0.357143 
r93 889 892 0.21 
r94 887 1041 0.00544385 
r95 1039 887 0.126578 
r96 885 887 1 
r97 885 889 0.445 
r98 880 882 0.00612761 
r99 880 1033 0.0327869 
r100 1027 878 0.00301483 
r101 878 1031 0.00301741 
r102 876 878 0.0266667 
r103 876 880 0.0287785 
r104 970 875 0.130435 
r105 875 1025 0.00301741 
r106 1022 875 0.00301741 
r107 873 875 0.0266667 
r108 873 876 0.0242129 
r109 1016 872 0.00301483 
r110 872 1020 0.00301741 
r111 870 872 0.0266667 
r112 870 873 0.0242129 
r113 869 870 0.000615582 
r114 949 868 0.130435 
r115 868 1014 0.00301741 
r116 1011 868 0.00301741 
r117 866 868 0.0266667 
r118 866 869 0.0235973 
r119 1005 865 0.00301483 
r120 865 1009 0.00301741 
r121 863 865 0.0266667 
r122 863 866 0.0242129 
r123 862 895 0.02 
r124 862 863 0.0277012 
r125 859 995 0.6 
r126 900 857 0.429445 
r127 857 859 2.21804 
r128 854 1047 0.357143 
r129 851 854 0.21 
r130 849 995 0.017861 
r131 991 849 0.00545455 
r132 847 849 1 
r133 847 851 0.445 
r134 836 1000 0.0350802 
r135 836 837 0.00175232 
r136 835 1037 0.115829 
r137 835 837 0.00175232 
r138 828 837 0.087289 
r139 828 829 3.90303 
r140 824 988 0.230275 
r141 822 983 0.210275 
r142 820 914 0.229041 
r143 820 821 0.0863581 
r144 818 910 0.209132 
r145 818 819 0.0863581 
r146 824 816 0.0861375 
r147 816 817 0.132033 
r148 822 815 0.0861375 
r149 785 912 0.128 
r150 784 817 0.0473573 
r151 784 912 0.126 
r152 754 785 0.0473573 
r153 821 754 0.132033 
r154 750 912 0.126 
r155 749 917 1.1475 
r156 748 912 0.128 
r157 747 748 0.0473573 
r158 747 819 0.250407 
r159 829 587 6 
r160 584 585 0.0834783 
r161 584 587 0.735758 
r162 749 582 0.0338756 
r163 565 582 0.00880368 
r164 565 566 0.1375 
r165 511 844 0.0419737 
r166 840 511 0.0413851 
r167 869 511 0.00128205 
r168 878 499 0.130435 
r169 970 414 0.00313778 
r170 1025 414 0.0652174 
r171 499 404 0.0031351 
r172 1027 404 0.0652174 
r173 364 499 0.00314046 
r174 1031 364 0.0652174 
r175 985 353 0.0141284 
r176 353 987 0.0652174 
r177 872 336 0.130435 
r178 949 251 0.00313778 
r179 1014 251 0.0652174 
r180 336 241 0.0031351 
r181 1016 241 0.0652174 
r182 201 336 0.00314046 
r183 1020 201 0.0652174 
r184 191 970 0.00313778 
r185 1022 191 0.0652174 
r186 865 173 0.130435 
r187 88 914 0.0126027 
r188 912 88 0.0131507 
r189 1003 88 0.0652174 
r190 173 78 0.0031351 
r191 1005 78 0.0652174 
r192 38 173 0.00314046 
r193 1009 38 0.0652174 
r194 28 949 0.00313778 
r195 1011 28 0.0652174 
r196 14 815 0.250407 
r197 14 750 0.0473573 
.ends

.subckt PM_PT3O02%U29_ngate3 50 55 77 86
c0 127 0 0.151268f
c1 121 0 0.615663f
c2 119 0 0.0716293f
c3 118 0 8.39408f
c4 115 0 4.52909f
c5 111 0 0.772477f
c6 104 0 2.68758f
c7 92 0 3.22087f
c8 86 0 1.71225f
c9 81 0 13.3422f
c10 77 0 0.00425734f
c11 65 0 0.964852f
c12 55 0 3.04886f
c13 54 0 0.172322f
c14 50 0 3.04886f
c15 49 0 0.172322f
r16 125 127 6 
r17 121 123 1.5 
r18 120 121 0.177377 
r19 118 120 0.0615435 
r20 118 119 8.976 
r21 115 127 6 
r22 113 119 0.0446983 
r23 113 115 5.613 
r24 111 112 0.0278049 
r25 111 123 0.0567977 
r26 109 111 0.0278049 
r27 104 106 0.874286 
r28 86 83 1.59714 
r29 104 83 6 
r30 125 81 1.64267 
r31 106 81 6 
r32 106 78 3.29429 
r33 78 92 6 
r34 92 77 4.93143 
r35 60 65 5.05882 
r36 59 65 5.05882 
r37 54 60 3.88985 
r38 54 55 183.96 
r39 49 59 3.88985 
r40 49 50 183.96 
r41 65 27 0.00133393 
r42 109 27 3 
r43 9 65 0.0278113 
r44 112 9 3 
.ends

.subckt PM_PT3O02%ngate 50 55 100 102 113 118 161 163 180
c0 230 0 0.454164f
c1 219 0 0.159652f
c2 216 0 0.745278f
c3 213 0 0.0834404f
c4 212 0 5.08556f
c5 209 0 6.09232f
c6 202 0 2.08071f
c7 197 0 3.00335f
c8 185 0 1.77581f
c9 180 0 1.44198f
c10 170 0 0.431378f
c11 163 0 0.594522f
c12 161 0 0.830451f
c13 158 0 0.148809f
c14 155 0 0.145585f
c15 144 0 16.4425f
c16 136 0 3.1315f
c17 134 0 0.0286327f
c18 131 0 0.0509039f
c19 125 0 0.0801312f
c20 124 0 0.407641f
c21 122 0 0.452404f
c22 118 0 1.3223f
c23 113 0 1.34573f
c24 111 0 0.0513034f
c25 110 0 0.363919f
c26 109 0 0.755108f
c27 107 0 0.0506561f
c28 106 0 0.334806f
c29 102 0 2.15277f
c30 100 0 0.953092f
c31 65 0 0.96948f
c32 55 0 3.04884f
c33 54 0 0.170464f
c34 50 0 3.04886f
c35 49 0 0.169798f
r36 217 219 6 
r37 217 221 1.91467 
r38 215 230 0.000487805 
r39 227 215 0.055122 
r40 214 216 0.0804417 
r41 214 215 1.5 
r42 212 216 0.0777084 
r43 212 213 5.58 
r44 209 219 6 
r45 207 213 0.0446983 