* File: pv0a.dist.sp.pex
* Created: Sun Jul  4 13:13:09 2010
* Program "Calibre xRC"
* Version "v2008.4_19.14"
* Nominal Temperature: 27C
* Circuit Temperature: 27C
* 
.subckt PM_PV0A%U31_U29_c2 135 140 227 232 252 311 316 321 325 329 333 337 343
+ 454
c0 483 0 0.675663f
c1 479 0 0.351524f
c2 454 0 0.275643f
c3 444 0 0.599145f
c4 437 0 0.561729f
c5 434 0 0.427745f
c6 431 0 0.556748f
c7 424 0 0.556884f
c8 421 0 0.427745f
c9 418 0 0.566739f
c10 404 0 12.2991f
c11 386 0 16.0998f
c12 385 0 0.201204f
c13 371 0 8.94962f
c14 370 0 0.200486f
c15 365 0 0.39841f
c16 363 0 0.263522f
c17 362 0 0.297339f
c18 361 0 1.1639f
c19 359 0 5.25739f
c20 358 0 0.0489987f
c21 351 0 0.104961f
c22 350 0 0.532789f
c23 349 0 0.105044f
c24 348 0 0.532789f
c25 347 0 0.105044f
c26 346 0 0.532789f
c27 345 0 0.105044f
c28 344 0 0.464368f
c29 343 0 2.81062f
c30 337 0 2.75911f
c31 333 0 2.75911f
c32 329 0 2.75911f
c33 325 0 2.75911f
c34 321 0 2.75911f
c35 316 0 2.75911f
c36 311 0 2.81011f
c37 252 0 2.5358f
c38 232 0 2.75911f
c39 231 0 0.105044f
c40 227 0 2.75911f
c41 226 0 0.105044f
c42 140 0 2.75911f
c43 139 0 0.105044f
c44 135 0 2.75911f
c45 134 0 0.105044f
r46 450 479 1.5 
r47 444 475 0.086875 
r48 442 444 3 
r49 442 445 0.387317 
r50 441 442 0.370732 
r51 437 471 0.0875 
r52 435 437 3 
r53 435 441 0.328293 
r54 434 435 0.429756 
r55 431 467 0.09 
r56 429 431 3 
r57 429 434 0.342927 
r58 428 429 0.415122 
r59 424 463 0.09 
r60 422 424 3 
r61 422 428 0.336098 
r62 421 422 0.421951 
r63 416 418 3 
r64 416 421 0.322927 
r65 415 416 0.435122 
r66 411 415 0.758049 
r67 445 404 0.055122 
r68 393 475 3 
r69 391 483 0.0278466 
r70 389 391 1 
r71 388 479 0.000307692 
r72 386 388 1.5 
r73 386 389 1.11816 
r74 385 393 0.0228641 
r75 385 386 4.11429 
r76 383 471 3 
r77 379 467 3 
r78 379 383 0.657094 
r79 376 463 3 
r80 376 379 0.640684 
r81 418 374 0.09 
r82 372 374 3 
r83 372 376 0.636239 
r84 371 393 0.0219169 
r85 371 383 0.551111 
r86 367 454 0.0310112 
r87 365 367 2 
r88 370 365 0.0840201 
r89 362 370 0.0996985 
r90 362 363 0.126231 
r91 361 363 0.0454005 
r92 360 483 0.0200118 
r93 360 361 0.306129 
r94 359 450 0.113058 
r95 358 450 0.567493 
r96 351 404 2.14706 
r97 350 441 5.05882 
r98 349 441 5.05882 
r99 348 428 5.05882 
r100 347 428 5.05882 
r101 346 415 5.05882 
r102 345 415 5.05882 
r103 344 411 2.14706 
r104 339 351 4.2601 
r105 339 343 229.95 
r106 334 350 4.2601 
r107 334 337 229.95 
r108 330 349 4.2601 
r109 330 333 229.965 
r110 326 348 4.2601 
r111 326 329 229.965 
r112 322 347 4.2601 
r113 322 325 229.965 
r114 318 346 4.2601 
r115 318 321 229.965 
r116 313 345 4.2601 
r117 313 316 229.95 
r118 308 344 4.2601 
r119 308 311 229.95 
r120 359 257 0.0954001 
r121 257 252 1.9113 
r122 251 358 0.0954001 
r123 251 252 1.9113 
r124 238 434 5.05882 
r125 237 434 5.05882 
r126 231 238 4.2601 
r127 231 232 229.95 
r128 226 237 4.2601 
r129 226 227 229.95 
r130 146 421 5.05882 
r131 145 421 5.05882 
r132 139 146 4.2601 
r133 139 140 229.95 
r134 134 145 4.2601 
r135 134 135 229.95 
.ends

.subckt PM_PV0A%VSSO 279 442 1055 1058 1061 1064 1067 1070 1073 1076 1123 1127
+ 1130 1136 1152 1191 1204 1208 1225 1231 1237 1246 1252 1258 1264 1270 1276 1281
+ 1295 1301 1306 1309 1320 1344 1353 1378
c0 1376 0 159.215f
c1 1372 0 8.55961f
c2 1371 0 30.0553f
c3 1367 0 9.01368f
c4 1363 0 8.99376f
c5 1358 0 8.99476f
c6 1353 0 27.7483f
c7 1342 0 8.99565f
c8 1330 0 61.4629f
c9 1328 0 6.63283f
c10 1320 0 1.24866f
c11 1309 0 0.32889f
c12 1301 0 14.5028f
c13 1276 0 9.86804f
c14 1270 0 9.85499f
c15 1264 0 9.85758f
c16 1258 0 9.92607f
c17 1252 0 9.85499f
c18 1246 0 9.8433f
c19 1237 0 1.9233f
c20 1209 0 10.6427f
c21 1202 0 1.52268f
c22 1196 0 164.641f
c23 1191 0 45.9219f
c24 1173 0 8.89329f
c25 1170 0 8.8419f
c26 1156 0 14.5768f
c27 1150 0 1.10368f
c28 1148 0 0.935935f
c29 1136 0 18.7667f
c30 1127 0 23.556f
c31 1120 0 0.939119f
c32 1119 0 0.374404f
c33 1118 0 0.178738f
c34 1117 0 1.99351f
c35 1116 0 0.157476f
c36 1115 0 130.736f
c37 1114 0 5.14896f
c38 1112 0 0.378108f
c39 1111 0 0.718896f
c40 1109 0 6.85849f
c41 1100 0 5.12903f
c42 1098 0 0.355129f
c43 1097 0 0.711479f
c44 1096 0 0.213389f
c45 1092 0 1.79755f
c46 1090 0 1.80531f
c47 1088 0 1.77824f
c48 1086 0 1.8182f
c49 1084 0 1.78147f
c50 1082 0 1.7797f
c51 1080 0 1.7797f
c52 1078 0 1.78089f
c53 1076 0 1.94431f
c54 1073 0 1.92451f
c55 1070 0 1.92451f
c56 1067 0 1.92451f
c57 1064 0 1.97476f
c58 1061 0 1.97954f
c59 1058 0 1.93192f
c60 1055 0 1.94986f
c61 1023 0 0.101349f
c62 1022 0 7.77207f
c63 991 0 0.190663f
c64 988 0 2.04611f
c65 987 0 1.8806f
c66 985 0 4.27206f
c67 572 0 0.288305f
c68 571 0 5.59847f
c69 491 0 7.40573f
c70 357 0 13.9342f
c71 307 0 13.9342f
c72 194 0 13.9342f
c73 144 0 13.9342f
c74 118 0 6.72743f
c75 86 0 13.9342f
c76 14 0 0.117644f
c77 8 0 0.102662f
r78 1385 1386 0.0171728 
r79 1384 1385 0.0171728 
r80 1383 1384 0.0171728 
r81 1382 1383 0.0171728 
r82 1381 1382 0.0171728 
r83 1377 1378 0.000593237 
r84 1376 1377 0.0669831 
r85 1373 1374 0.0119231 
r86 1372 1373 0.0963462 
r87 1371 1374 0.299038 
r88 1371 1369 0.384385 
r89 1368 1369 0.013262 
r90 1367 1368 0.107166 
r91 1371 1364 0.397647 
r92 1363 1364 0.107166 
r93 1371 1360 0.384385 
r94 1359 1360 0.013262 
r95 1358 1359 0.107166 
r96 1350 1351 0.157754 
r97 1349 1350 0.152834 
r98 1348 1349 0.169519 
r99 1371 1343 0.397647 
r100 1342 1343 0.107166 
r101 1371 1339 0.384385 
r102 1338 1339 0.013262 
r103 1371 1334 0.282009 
r104 1333 1334 0.0113242 
r105 1330 1367 0.294973 
r106 1330 1363 0.294973 
r107 1330 1358 0.294973 
r108 1330 1342 0.294973 
r109 1330 1378 0.129456 
r110 1330 1372 0.265192 
r111 1327 1328 0.0551111 
r112 1326 1327 0.0497778 
r113 1325 1326 0.0497778 
r114 1324 1325 0.0497778 
r115 1322 1324 0.0311111 
r116 1322 1351 0.0413793 
r117 1320 1322 0.00284444 
r118 1319 1320 0.0158222 
r119 1318 1319 0.0497778 
r120 1317 1318 0.0497778 
r121 1316 1317 0.0497778 
r122 1314 1316 0.0551111 
r123 1304 1306 0.0012844 
r124 1304 1374 0.0606061 
r125 1295 1369 0.130435 
r126 1281 1360 0.130435 
r127 1273 1276 0.00883721 
r128 1273 1386 0.0566038 
r129 1267 1270 0.00883721 
r130 1267 1385 0.0566038 
r131 1261 1264 0.00883721 
r132 1261 1384 0.0566038 
r133 1255 1258 0.00883721 
r134 1255 1383 0.0566038 
r135 1249 1252 0.00883721 
r136 1249 1382 0.0566038 
r137 1243 1246 0.00883721 
r138 1243 1381 0.0566038 
r139 1240 1349 0.04 
r140 1237 1240 0.29128 
r141 1231 1339 0.130435 
r142 1223 1225 0.00127854 
r143 1223 1334 0.0606061 
r144 1211 1371 0.115299 
r145 1209 1211 0.0181818 
r146 1202 1204 0.4449 
r147 1200 1381 0.019893 
r148 1198 1200 0.0288462 
r149 1196 1198 0.111877 
r150 1196 1350 0.0190476 
r151 1194 1209 0.00937584 
r152 1194 1196 0.0352823 
r153 1190 1191 0.00123769 
r154 1188 1190 0.0134005 
r155 1188 1372 0.0368098 
r156 1184 1367 0.0292683 
r157 1184 1188 0.0275766 
r158 1182 1184 0.0292827 
r159 1182 1363 0.0292683 
r160 1179 1182 0.0292827 
r161 1179 1358 0.0292683 
r162 1177 1179 0.000527336 
r163 1174 1342 0.0292683 
r164 1174 1177 0.0287553 
r165 1173 1338 0.107166 
r166 1330 1173 0.294973 
r167 1171 1173 0.0292683 
r168 1171 1174 0.0292827 
r169 1170 1333 0.0801826 
r170 1330 1170 0.263196 
r171 1168 1170 0.0350877 
r172 1168 1171 0.0275766 
r173 1167 1208 0.0304129 
r174 1167 1168 0.00704149 
r175 1163 1164 0.00752787 
r176 1162 1163 0.021023 
r177 1160 1162 0.000537705 
r178 1160 1376 0.00162999 
r179 1158 1160 0.000537705 
r180 1156 1158 0.0285508 
r181 1150 1152 0.4449 
r182 1148 1208 0.0768886 
r183 1134 1136 0.00199444 
r184 1133 1134 0.35605 
r185 1130 1133 0.00306111 
r186 1309 1122 0.00209524 
r187 1121 1122 2 
r188 1119 1121 0.0344193 
r189 1119 1120 0.344286 
r190 1117 1120 0.0446983 
r191 1117 1118 0.766786 
r192 1116 1118 0.0446983 
r193 1115 1386 0.163575 
r194 1115 1116 0.0464286 
r195 1113 1306 0.230275 
r196 1113 1114 0.0861375 
r197 1111 1301 0.211193 
r198 1111 1112 0.0861375 
r199 1109 1110 0.089172 
r200 1108 1109 0.089172 
r201 1107 1108 0.089172 
r202 1106 1240 0.0616 
r203 1105 1107 0.089172 
r204 1105 1106 0.0204618 
r205 1104 1105 0.089172 
r206 1103 1104 0.089172 
r207 1102 1103 0.089172 
r208 1101 1102 0.089172 
r209 1099 1225 0.229041 
r210 1099 1100 0.0863581 
r211 1097 1301 0.210046 
r212 1097 1098 0.0863581 
r213 1114 1096 0.132033 
r214 1092 1327 0.02 
r215 1092 1320 0.30632 
r216 1090 1326 0.02 
r217 1090 1320 0.30632 
r218 1088 1325 0.02 
r219 1088 1320 0.30632 
r220 1086 1324 0.02 
r221 1086 1320 0.30632 
r222 1084 1319 0.02 
r223 1084 1320 0.30632 
r224 1082 1318 0.02 
r225 1082 1320 0.30632 
r226 1080 1317 0.02 
r227 1080 1320 0.30632 
r228 1078 1316 0.02 
r229 1078 1320 0.30632 
r230 1110 1076 0.35928 
r231 1109 1073 0.35928 
r232 1108 1070 0.35928 
r233 1107 1067 0.35928 
r234 1063 1104 0.0204618 
r235 1063 1064 0.35288 
r236 1060 1103 0.0204618 
r237 1060 1061 0.35288 
r238 1102 1058 0.35928 
r239 1101 1055 0.35928 
r240 1023 1301 0.128 
r241 1022 1096 0.0473573 
r242 1022 1301 0.126 
r243 991 1023 0.0473573 
r244 1100 991 0.132033 
r245 988 1328 0.02 
r246 987 1314 0.02 
r247 985 1301 0.126 
r248 984 1301 0.128 
r249 581 988 0.5605 
r250 571 581 0.0446983 
r251 571 572 1.21 
r252 569 572 0.0446983 
r253 569 987 0.5605 
r254 1204 502 0.2101 
r255 502 1134 0.357143 
r256 501 1353 0.00383957 
r257 1351 501 0.190588 
r258 1202 501 1 
r259 497 1127 0.0418839 
r260 1123 497 0.0414748 
r261 1177 497 0.00132837 
r262 493 1348 0.666667 
r263 1148 491 0.20108 
r264 491 493 2.0883 
r265 1152 489 0.1981 
r266 489 1133 0.357143 
r267 488 1348 0.0147487 
r268 1344 488 0.00589305 
r269 1150 488 1 
r270 481 484 0.0022831 
r271 1164 481 0.0375475 
r272 481 1377 0.00547945 
r273 1162 454 0.00210084 
r274 452 454 0.000537705 
r275 1158 452 0.00210084 
r276 1364 442 0.130435 
r277 1281 357 0.00313778 
r278 1359 357 0.0652174 
r279 442 347 0.0031351 
r280 1364 347 0.0652174 
r281 307 442 0.00314046 
r282 1364 307 0.0652174 
r283 297 1295 0.00313778 
r284 1368 297 0.0652174 
r285 1343 279 0.130435 
r286 1231 194 0.00313778 
r287 1338 194 0.0652174 
r288 279 184 0.0031351 
r289 1343 184 0.0652174 
r290 144 279 0.00314046 
r291 1343 144 0.0652174 
r292 134 1281 0.00313778 
r293 1359 134 0.0652174 
r294 454 124 0.0105115 
r295 1163 124 0.00712251 
r296 120 484 0.0187738 
r297 124 120 0.00376393 
r298 1164 120 0.00712251 
r299 118 452 0.0142754 
r300 1156 118 0.00356125 
r301 1295 86 0.00313778 
r302 1368 86 0.0652174 
r303 76 1304 0.0113761 
r304 1301 76 0.013211 
r305 1373 76 0.0652174 
r306 36 1223 0.0113242 
r307 1301 36 0.0131507 
r308 1333 36 0.0652174 
r309 26 1231 0.00313778 
r310 1338 26 0.0652174 
r311 14 1112 0.250407 
r312 14 985 0.0473573 
r313 8 1098 0.250407 
r314 8 984 0.0473573 
.ends

.subckt PM_PV0A%noxref_3 8 15
c0 16 0 0.313711f
c1 14 0 0.78802f
c2 13 0 0.360808f
r3 14 16 0.020045 
r4 13 15 0.0300645 
r5 13 14 0.232258 
r6 16 8 0.0675676 
.ends

.subckt PM_PV0A%VDDO 94 170 246 322 446 522 601 634 1445 1454 1487 1492 1495
+ 1499 1502 1507 1511 1515 1544 1596 1611 1614 1629 1651 1660 1669 1678 1687 1696
+ 1705
c0 1813 0 10.7905f
c1 1808 0 4.45421f
c2 1799 0 7.7878f
c3 1795 0 10.8367f
c4 1791 0 10.8379f
c5 1787 0 10.8378f
c6 1783 0 10.802f
c7 1774 0 8.00794f
c8 1769 0 4.4398f
c9 1765 0 10.7266f
c10 1759 0 1.19633f
c11 1755 0 1.19693f
c12 1750 0 1.2021f
c13 1748 0 0.432568f
c14 1745 0 1.17399f
c15 1743 0 0.37705f
c16 1741 0 1.0725f
c17 1710 0 7.14977f
c18 1707 0 9.32276f
c19 1698 0 15.6198f
c20 1689 0 15.6198f
c21 1680 0 15.6254f
c22 1671 0 15.6198f
c23 1662 0 15.6198f
c24 1653 0 9.58269f
c25 1629 0 0.00364546f
c26 1621 0 6.56517f
c27 1618 0 0.462937f
c28 1604 0 0.266213f
c29 1593 0 53.2587f
c30 1572 0 37.7825f
c31 1570 0 10.6375f
c32 1549 0 34.8168f
c33 1548 0 48.9253f
c34 1547 0 7.96682f
c35 1544 0 57.3011f
c36 1507 0 3.01061f
c37 1499 0 2.39493f
c38 1492 0 18.8261f
c39 1454 0 41.5803f
c40 1452 0 1.33353f
c41 1435 0 0.431442f
c42 1431 0 0.429653f
c43 1425 0 0.430419f
c44 1378 0 2.47803f
c45 1377 0 9.70977f
c46 1131 0 0.11068f
c47 1130 0 3.58651f
c48 1127 0 0.0815817f
c49 1126 0 5.07428f
c50 634 0 18.995f
c51 609 0 0.524854f
c52 597 0 0.576567f
c53 586 0 0.369494f
c54 584 0 0.46771f
c55 582 0 0.487175f
c56 580 0 0.493348f
c57 578 0 0.47061f
c58 522 0 3.29769f
c59 466 0 6.98616f
c60 446 0 3.29769f
c61 390 0 6.98616f
c62 322 0 3.29769f
c63 266 0 6.9761f
c64 246 0 3.29769f
c65 190 0 6.98616f
c66 170 0 3.29758f
c67 114 0 6.96749f
c68 94 0 3.29758f
c69 38 0 6.94786f
c70 21 0 0.152029f
c71 20 0 6.88684f
c72 11 0 0.152029f
c73 10 0 6.83264f
r74 1808 1810 0.648972 
r75 1801 1802 0.279231 
r76 1799 1801 0.255385 
r77 1776 1777 0.273962 
r78 1774 1776 0.250566 
r79 1769 1771 0.602617 
r80 1740 1750 0.0487283 
r81 1740 1745 0.0487283 
r82 1740 1760 0.0184173 
r83 1740 1759 0.0495916 
r84 1740 1756 0.0184173 
r85 1740 1755 0.049016 
r86 1740 1741 0.0487283 
r87 1720 1810 0.111111 
r88 1718 1720 0.134579 
r89 1705 1707 0.797363 
r90 1702 1705 0.839121 
r91 1696 1698 0.553893 
r92 1693 1696 0.582901 
r93 1687 1689 0.553893 
r94 1684 1687 0.582901 
r95 1678 1680 0.553893 
r96 1675 1678 0.582901 
r97 1671 1802 1.5 
r98 1669 1671 0.553893 
r99 1666 1669 0.582901 
r100 1666 1777 1.5 
r101 1662 1801 1.5 
r102 1660 1662 0.553893 
r103 1657 1660 0.582901 
r104 1657 1776 1.5 
r105 1653 1799 1.5 
r106 1651 1653 0.797363 
r107 1648 1651 0.839121 
r108 1648 1774 1.5 
r109 1631 1771 0.109091 
r110 1629 1646 0.159252 
r111 1710 1629 0.159252 
r112 1720 1629 0.0246729 
r113 1629 1735 0.159252 
r114 1629 1718 0.11215 
r115 1629 1631 0.0393489 
r116 1628 1629 0.11215 
r117 1627 1628 0.11215 
r118 1629 1627 0.159252 
r119 1621 1629 0.159252 
r120 1614 1618 0.170337 
r121 1609 1610 0.00364611 
r122 1765 1608 0.206489 
r123 1606 1608 0.133333 
r124 1606 1609 0.0765147 
r125 1605 1606 0.00252011 
r126 1618 1604 3 
r127 1596 1598 0.1811 
r128 1593 1611 0.0393159 
r129 1592 1593 0.935262 
r130 1589 1808 0.206897 
r131 1583 1801 1.5 
r132 1583 1799 1.5 
r133 1583 1589 0.0140987 
r134 1583 1802 1.5 
r135 1581 1583 0.0763343 
r136 1575 1776 1.5 
r137 1575 1774 1.5 
r138 1575 1581 0.0736355 
r139 1575 1777 1.5 
r140 1573 1575 0.0140584 
r141 1572 1611 0.0222775 
r142 1572 1589 0.00791541 
r143 1569 1570 0.64 
r144 1568 1569 0.635932 
r145 1567 1568 0.645085 
r146 1566 1610 0.0200268 
r147 1566 1567 0.534576 
r148 1813 1565 0.206489 
r149 1563 1565 0.133333 
r150 1795 1562 0.206489 
r151 1560 1562 0.133333 
r152 1560 1563 0.104211 
r153 1791 1559 0.206489 
r154 1557 1559 0.133333 
r155 1557 1560 0.104654 
r156 1787 1556 0.206489 
r157 1554 1556 0.133333 
r158 1554 1557 0.104543 
r159 1783 1553 0.206489 
r160 1551 1553 0.133333 
r161 1551 1554 0.104654 
r162 1550 1605 0.0200268 
r163 1550 1551 0.0843213 
r164 1549 1592 0.0448586 
r165 1549 1563 0.00936288 
r166 1547 1610 0.00631861 
r167 1547 1548 0.763588 
r168 1810 1543 0.880748 
r169 1541 1543 0.230769 
r170 1541 1544 0.0332249 
r171 1680 1540 1.5 
r172 1802 1540 0.279231 
r173 1689 1538 1.5 
r174 1540 1538 0.279231 
r175 1698 1536 1.5 
r176 1538 1536 0.279231 
r177 1707 1534 1.5 
r178 1536 1534 0.279231 
r179 1532 1534 1.5 
r180 1532 1536 1.5 
r181 1532 1538 1.5 
r182 1532 1540 1.5 
r183 1532 1541 0.0116183 
r184 1675 1530 1.5 
r185 1777 1530 0.273962 
r186 1684 1528 1.5 
r187 1530 1528 0.273962 
r188 1693 1526 1.5 
r189 1528 1526 0.273962 
r190 1702 1524 1.5 
r191 1526 1524 0.273962 
r192 1522 1524 1.5 
r193 1522 1526 1.5 
r194 1522 1528 1.5 
r195 1522 1530 1.5 
r196 1771 1521 0.927103 
r197 1519 1521 0.230769 
r198 1519 1522 0.0134772 
r199 1518 1519 0.0228382 
r200 1515 1518 0.0110207 
r201 1511 1513 0.1811 
r202 1505 1507 0.0542058 
r203 1502 1505 0.0536763 
r204 1598 1491 0.5 
r205 1491 1492 0.00284461 
r206 1484 1760 3 
r207 1477 1756 3 
r208 1471 1473 3 
r209 1467 1748 0.0311743 
r210 1465 1467 3 
r211 1453 1454 0.00347712 
r212 1736 1452 0.22046 
r213 1450 1452 0.375 
r214 1450 1453 0.0738126 
r215 1449 1450 0.463268 
r216 1448 1449 0.0210806 
r217 1445 1448 0.00480174 
r218 1436 1740 0.164 
r219 1760 1435 0.0288722 
r220 1435 1436 0.1568 
r221 1759 1434 0.1536 
r222 1740 1434 0.16408 
r223 1432 1740 0.16392 
r224 1756 1431 0.0317499 
r225 1431 1432 0.1528 
r226 1755 1429 0.1544 
r227 1740 1429 0.164 
r228 1426 1740 0.164 
r229 1473 1425 0.0282966 
r230 1425 1426 0.1524 
r231 1750 1423 0.1548 
r232 1740 1423 0.16408 
r233 1421 1740 0.16392 
r234 1748 1421 0.1544 
r235 1745 1418 0.1548 
r236 1740 1418 0.164 
r237 1743 1415 0.1532 
r238 1740 1415 0.164 
r239 1741 1412 0.1548 
r240 1740 1412 0.164 
r241 1378 1740 0.2648 
r242 1377 1740 0.2648 
r243 1372 1740 0.2664 
r244 1371 1740 0.2664 
r245 1149 1735 0.19514 
r246 1148 1710 0.19514 
r247 1131 1629 2.11181 
r248 1130 1149 0.0456322 
r249 1130 1629 2.10217 
r250 1127 1629 2.181 
r251 1126 1148 0.045921 
r252 1126 1629 2.191 
r253 1120 1646 0.19514 
r254 1120 1131 0.0456322 
r255 1119 1621 0.19514 
r256 1119 1127 0.045921 
r257 634 1736 3.53933 
r258 613 1449 0.02 
r259 613 614 0.758885 
r260 609 1596 0.1699 
r261 609 1453 1.5 
r262 607 1532 0.0635685 
r263 1522 607 0.0600166 
r264 607 1505 0.00150602 
r265 614 606 0.510769 
r266 1518 606 0.2 
r267 604 1499 0.0653756 
r268 1495 604 0.0655388 
r269 1581 604 0.00181159 
r270 601 1769 0.206897 
r271 601 1604 3 
r272 601 1548 0.0351851 
r273 601 1573 0.0226623 
r274 601 614 0.2 
r275 600 1491 0.468512 
r276 1487 600 0.00395612 
r277 1513 600 0.5 
r278 597 1511 0.1699 
r279 597 1448 1.5 
r280 591 1473 0.00028777 
r281 1740 591 0.0218705 
r282 589 1467 0.00028777 
r283 1740 589 0.017554 
r284 1459 587 3 
r285 587 1743 0.0334765 
r286 1740 587 0.0164029 
r287 587 586 3 
r288 586 1459 0.0279195 
r289 1609 586 1.5 
r290 589 584 3 
r291 584 1465 0.0282034 
r292 1567 584 1.5 
r293 591 582 3 
r294 582 1471 0.028 
r295 1568 582 1.5 
r296 1756 580 3 
r297 580 1477 0.0277333 
r298 1569 580 1.5 
r299 1760 578 3 
r300 578 1484 0.029589 
r301 1570 578 1.5 
r302 522 480 0.00249413 
r303 1791 480 0.0425532 
r304 466 522 0.00249413 
r305 1791 466 0.0425532 
r306 446 404 0.00249413 
r307 1795 404 0.0425532 
r308 390 446 0.00249413 
r309 1795 390 0.0425532 
r310 322 280 0.00249413 
r311 1783 280 0.0425532 
r312 266 322 0.00249413 
r313 1783 266 0.0425532 
r314 246 204 0.00249413 
r315 1787 204 0.0425532 
r316 190 246 0.00249413 
r317 1787 190 0.0425532 
r318 170 128 0.00249413 
r319 1813 128 0.0425532 
r320 114 170 0.00249413 
r321 1813 114 0.0425532 
r322 94 52 0.00249413 
r323 1765 52 0.0425532 
r324 38 94 0.00249413 
r325 1765 38 0.0425532 
r326 1378 21 0.0447329 
r327 21 1740 1.51848 
r328 20 1377 0.0447329 
r329 20 1740 1.51162 
r330 1372 11 0.0447329 
r331 11 1740 1.51848 
r332 10 1371 0.0447329 
r333 10 1740 1.51162 
.ends

.subckt PM_PV0A%U19_U22$11_gate 413 415 417 419 421 423 425 427 429 431 433 436
+ 490
c0 528 0 8.14468f
c1 523 0 0.351289f
c2 522 0 0.351289f
c3 521 0 0.351289f
c4 520 0 0.351289f
c5 519 0 0.351289f
c6 518 0 0.332504f
c7 517 0 0.351678f
c8 516 0 0.351289f
c9 515 0 0.351289f
c10 514 0 0.351289f
c11 513 0 0.351289f
c12 511 0 7.36226f
c13 507 0 0.352419f
c14 506 0 0.372527f
c15 505 0 0.372527f
c16 504 0 0.372527f
c17 503 0 0.372527f
c18 502 0 0.357334f
c19 501 0 0.372917f
c20 500 0 0.372527f
c21 499 0 0.372527f
c22 498 0 0.372527f
c23 495 0 8.1203f
c24 483 0 0.377422f
c25 481 0 1.45869f
c26 473 0 1.61299f
c27 470 0 2.13024f
c28 467 0 0.239691f
c29 464 0 0.523811f
c30 412 0 4.08967f
c31 400 0 0.139885f
c32 308 0 0.351289f
c33 305 0 0.35479f
c34 277 0 3.8463f
c35 275 0 0.114951f
c36 241 0 3.8463f
c37 239 0 0.114951f
c38 223 0 3.8463f
c39 221 0 0.114951f
c40 187 0 3.8463f
c41 185 0 0.114951f
c42 169 0 3.84838f
c43 167 0 0.115458f
c44 133 0 3.84061f
c45 131 0 0.114951f
c46 115 0 3.84568f
c47 113 0 0.114951f
c48 79 0 3.8463f
c49 77 0 0.114951f
c50 61 0 3.8463f
c51 59 0 0.114951f
c52 25 0 3.8463f
c53 23 0 0.114951f
c54 7 0 4.07812f
c55 5 0 0.136251f
r56 522 523 0.343512 
r57 521 522 0.36478 
r58 520 521 0.343512 
r59 519 520 0.36478 
r60 518 519 0.343512 
r61 517 518 0.36478 
r62 516 517 0.343512 
r63 515 516 0.36478 
r64 514 515 0.343512 
r65 513 514 0.36478 
r66 511 513 0.000585366 
r67 507 508 0.190244 
r68 506 507 0.277073 
r69 505 506 0.43122 
r70 504 505 0.277073 
r71 503 504 0.43122 
r72 502 503 0.277073 
r73 501 502 0.43122 
r74 500 501 0.277073 
r75 499 500 0.43122 
r76 498 499 0.277073 
r77 497 498 0.374146 
r78 495 497 0.0570732 
r79 486 511 2 
r80 483 528 0.000883978 
r81 481 483 3 
r82 481 486 0.849091 
r83 478 497 2 
r84 473 475 3 
r85 473 478 0.844242 
r86 470 508 3 
r87 490 467 0.00494845 
r88 465 467 3 
r89 465 470 0.429926 
r90 464 475 0.04449 
r91 528 464 4.51778 
r92 412 436 304.95 
r93 400 436 304.95 
r94 523 308 0.36478 
r95 508 305 0.240976 
r96 296 308 2.44118 
r97 412 296 4.2601 
r98 294 305 2.44118 
r99 400 294 4.2601 
r100 278 523 2.44118 
r101 277 433 304.95 
r102 277 278 4.2601 
r103 276 507 2.44118 
r104 275 433 304.95 
r105 275 276 4.2601 
r106 242 522 2.44118 
r107 241 431 304.95 
r108 241 242 4.2601 
r109 240 506 2.44118 
r110 239 431 304.95 
r111 239 240 4.2601 
r112 224 521 2.44118 
r113 223 429 304.95 
r114 223 224 4.2601 
r115 222 505 2.44118 
r116 221 429 304.95 
r117 221 222 4.2601 
r118 188 520 2.44118 
r119 187 427 304.95 
r120 187 188 4.2601 
r121 186 504 2.44118 
r122 185 427 304.95 
r123 185 186 4.2601 
r124 170 519 2.44118 
r125 169 425 304.95 
r126 169 170 4.2601 
r127 168 503 2.44118 
r128 167 425 304.95 
r129 167 168 4.2601 
r130 134 518 2.44118 
r131 133 423 304.95 
r132 133 134 4.2601 
r133 132 502 2.44118 
r134 131 423 304.95 
r135 131 132 4.2601 
r136 116 517 2.44118 
r137 115 421 304.95 
r138 115 116 4.2601 
r139 114 501 2.44118 
r140 113 421 304.95 
r141 113 114 4.2601 
r142 80 516 2.44118 
r143 79 419 304.95 
r144 79 80 4.2601 
r145 78 500 2.44118 
r146 77 419 304.95 
r147 77 78 4.2601 
r148 62 515 2.44118 
r149 61 417 304.95 
r150 61 62 4.2601 
r151 60 499 2.44118 
r152 59 417 304.95 
r153 59 60 4.2601 
r154 26 514 2.44118 
r155 25 415 304.95 
r156 25 26 4.2601 
r157 24 498 2.44118 
r158 23 415 304.95 
r159 23 24 4.2601 
r160 8 513 2.44118 
r161 7 413 304.95 
r162 7 8 4.2601 
r163 6 495 2.44118 
r164 5 413 304.95 
r165 5 6 4.2601 
.ends

.subckt PM_PV0A%noxref_6 8 15
c0 19 0 0.258453f
c1 14 0 0.576401f
c2 13 0 0.282359f
r3 14 19 0.02 
r4 13 15 0.0300645 
r5 13 14 0.232258 
r6 8 19 0.0116854 
.ends

.subckt PM_PV0A%VSS 1037 1040 1043 1046 1049 1052 1055 1083 1108 1114 1118 1140
+ 1157 1170 1180 1191
c0 1191 0 44.7981f
c1 1178 0 5.85209f
c2 1170 0 1.24866f
c3 1159 0 11.8004f
c4 1157 0 0.145467f
c5 1155 0 1.66286f
c6 1132 0 15.2662f
c7 1129 0 0.340605f
c8 1123 0 14.5535f
c9 1114 0 98.7837f
c10 1096 0 0.0730538f
c11 1095 0 7.92906f
c12 1093 0 7.06341f
c13 1083 0 2.02381f
c14 1058 0 6.57875f
c15 1055 0 1.82561f
c16 1052 0 1.85397f
c17 1049 0 1.85262f
c18 1046 0 1.81148f
c19 1043 0 1.81148f
c20 1040 0 1.81148f
c21 1037 0 2.02078f
c22 1034 0 1.85736f
c23 1032 0 1.85618f
c24 1030 0 1.85618f
c25 1028 0 1.85618f
c26 1026 0 1.88796f
c27 1024 0 1.84811f
c28 1022 0 1.86977f
c29 1020 0 1.85727f
c30 1019 0 1.7962f
c31 866 0 0.0538339f
c32 865 0 0.0538339f
c33 864 0 0.0753882f
c34 836 0 5.37092f
c35 832 0 0.736094f
c36 831 0 0.784601f
c37 821 0 5.1375f
c38 792 0 6.5102f
c39 789 0 0.102637f
c40 788 0 0.562762f
c41 787 0 0.120169f
c42 786 0 0.765352f
c43 785 0 6.24045f
c44 375 0 0.326304f
c45 373 0 0.346022f
c46 371 0 0.41564f
c47 369 0 7.80208f
c48 368 0 0.253105f
c49 367 0 0.280739f
c50 366 0 0.276044f
c51 365 0 0.558083f
c52 358 0 0.609076f
c53 226 0 0.236614f
c54 225 0 4.75793f
c55 224 0 2.00902f
c56 201 0 1.662f
c57 197 0 1.85061f
r58 1188 1189 0.0979462 
r59 1187 1188 0.0282353 
r60 1186 1187 0.228674 
r61 1185 1186 0.0412363 
r62 1180 1183 0.00303091 
r63 1177 1178 0.0551111 
r64 1176 1177 0.0497778 
r65 1175 1176 0.0497778 
r66 1174 1175 0.0497778 
r67 1172 1174 0.0131556 
r68 1172 1186 0.0413793 
r69 1170 1172 0.00266667 
r70 1169 1170 0.0339556 
r71 1168 1169 0.0497778 
r72 1167 1168 0.0497778 
r73 1166 1167 0.0497778 
r74 1164 1166 0.0551111 
r75 1162 1189 0.142857 
r76 1159 1162 0.113659 
r77 1155 1157 0.30408 
r78 1155 1187 0.0416667 
r79 1148 1183 0.142857 
r80 1145 1148 0.109268 
r81 1140 1142 0.1891 
r82 1135 1136 1.4503 
r83 1132 1135 0.813861 
r84 1132 1188 0.3 
r85 1151 1129 2 
r86 1127 1129 2 
r87 1126 1127 1.37301 
r88 1123 1126 0.830622 
r89 1123 1185 0.3 
r90 1118 1120 0.1891 
r91 1112 1114 0.000506675 
r92 1111 1112 0.0834503 
r93 1108 1111 0.000704656 
r94 1151 1106 3.64488 
r95 1095 1106 0.546341 
r96 1095 1096 0.0420172 
r97 1093 1094 0.089172 
r98 1092 1093 0.089172 
r99 1091 1092 0.089172 
r100 1090 1155 0.0488 
r101 1089 1091 0.089172 
r102 1089 1090 0.0204618 
r103 1088 1089 0.089172 
r104 1087 1088 0.089172 
r105 1086 1087 0.089172 
r106 1085 1086 0.089172 
r107 1094 1083 0.35928 
r108 1081 1096 0.0420172 
r109 1057 1096 0.00265108 
r110 1057 1058 0.346916 
r111 1093 1055 0.35928 
r112 1051 1092 0.0204618 
r113 1051 1052 0.35288 
r114 1048 1091 0.0204618 
r115 1048 1049 0.35288 
r116 1088 1046 0.35928 
r117 1087 1043 0.35928 
r118 1086 1040 0.35928 
r119 1085 1037 0.35928 
r120 1034 1177 0.02 
r121 1034 1170 0.30632 
r122 1032 1176 0.02 
r123 1032 1170 0.30632 
r124 1030 1175 0.02 
r125 1030 1170 0.30632 
r126 1028 1174 0.02 
r127 1028 1170 0.30632 
r128 1026 1169 0.02 
r129 1026 1170 0.30632 
r130 1024 1168 0.02 
r131 1024 1170 0.30632 
r132 1022 1167 0.02 
r133 1022 1170 0.30632 
r134 1020 1166 0.02 
r135 1020 1170 0.30632 
r136 1019 1164 0.02 
r137 1017 1162 0.349756 
r138 1016 1159 0.02 
r139 1015 1080 0.349159 
r140 1014 1151 0.522927 
r141 1013 1145 0.02 
r142 1012 1148 0.354146 
r143 1015 866 0.00319614 
r144 1014 864 0.0420172 
r145 835 863 0.347333 
r146 834 836 0.345333 
r147 833 866 0.0412274 
r148 832 835 0.0465329 
r149 832 833 0.578095 
r150 831 1081 0.592195 
r151 831 834 0.0467869 
r152 822 865 0.0412274 
r153 821 866 0.0412274 
r154 791 865 0.00319614 
r155 791 819 0.346916 
r156 790 864 0.00265108 
r157 790 792 0.344673 
r158 788 865 0.0412274 
r159 788 789 0.578095 
r160 786 864 0.0420172 
r161 786 787 0.592195 
r162 785 789 0.0465329 
r163 784 787 0.0467869 
r164 784 785 3.32467 
r165 378 381 1.676 
r166 375 1106 2 
r167 1136 375 2 
r168 381 373 1.5 
r169 1135 373 1.5 
r170 378 371 1 
r171 1126 371 1 
r172 369 381 0.459111 
r173 1017 368 0.0420897 
r174 367 378 0.462222 
r175 1012 366 0.0420897 
r176 365 369 0.0474127 
r177 368 365 0.120863 
r178 792 361 0.161495 
r179 361 819 0.161495 
r180 1058 361 0.159252 
r181 361 1080 0.159252 
r182 836 361 0.106 
r183 361 863 0.106 
r184 821 361 4.34857 
r185 822 361 0.253333 
r186 1016 361 2.94 
r187 1013 361 2.904 
r188 358 367 0.0474127 
r189 366 358 0.120863 
r190 235 1019 0.5605 
r191 225 235 0.0446983 
r192 225 226 1.21 
r193 224 1178 0.02 
r194 223 226 0.0446983 
r195 223 224 0.5605 
r196 201 1140 0.0129 
r197 201 1112 0.131579 
r198 200 1191 0.00318245 
r199 1189 200 0.0129212 
r200 1142 200 0.428571 
r201 197 1118 0.0249 
r202 197 1111 0.131579 
r203 196 1185 0.101926 
r204 1183 196 0.00128415 
r205 1120 196 0.428571 
.ends

.subckt PM_PV0A%VDD 17 22 25 31 33 39
c0 39 0 2.6042f
c1 33 0 1.71514f
c2 31 0 101.993f
c3 22 0 51.1756f
r4 29 31 0.000500966 
r5 28 29 0.0824842 
r6 25 28 0.000722473 
r7 7 43 0.141 
r8 39 7 0.0621 
r9 7 29 0.0925926 
r10 6 22 0.00305282 
r11 43 6 0.6 
r12 3 37 0.105 
r13 33 3 0.0611 
r14 3 28 0.0925926 
r15 2 6 0.466441 
r16 17 2 0.00408743 
r17 37 2 0.6 
.ends

