* File: pc3t02u.dist.sp.pex
* Created: Sun Jul  4 12:45:38 2010
* Program "Calibre xRC"
* Version "v2008.4_19.14"
* Nominal Temperature: 27C
* Circuit Temperature: 27C
* 
.subckt PM_PC3T02U%PAD 21 50 79 108 137 166 218 242 266 290 320 326 389 428 452
+ 459
c0 467 0 28.4309f
c1 460 0 83.1329f
c2 459 0 64.3341f
c3 456 0 159.215f
c4 451 0 0.991473f
c5 444 0 9.95779f
c6 434 0 13.0868f
c7 425 0 0.117887f
c8 423 0 214.361f
c9 408 0 15.3329f
c10 397 0 46.9214f
c11 392 0 65.4578f
c12 390 0 15.8924f
c13 389 0 1.04909f
c14 388 0 3.88476f
c15 326 0 13.3926f
c16 320 0 13.3816f
c17 290 0 13.3817f
c18 266 0 13.3917f
c19 242 0 13.6577f
c20 218 0 13.378f
c21 176 0 7.52869f
c22 166 0 2.98552f
c23 149 0 6.78371f
c24 137 0 2.98621f
c25 120 0 6.78371f
c26 108 0 2.98555f
c27 91 0 6.78371f
c28 79 0 2.98555f
c29 62 0 6.78371f
c30 50 0 2.98555f
c31 33 0 6.78371f
c32 21 0 2.98542f
c33 4 0 6.78371f
r34 467 468 0.118407 
r35 466 467 0.118407 
r36 465 466 0.056883 
r37 464 465 0.061524 
r38 463 464 0.118407 
r39 462 463 0.0830354 
r40 461 462 0.0353716 
r41 459 460 0.0124825 
r42 457 459 0.000593149 
r43 456 457 0.0669731 
r44 451 452 0.00916 
r45 444 462 0.0545455 
r46 434 465 0.015 
r47 425 428 0.00916 
r48 425 451 2 
r49 423 434 0.0264274 
r50 421 423 0.147454 
r51 421 422 0.0288462 
r52 415 416 0.00752787 
r53 414 415 0.021023 
r54 412 414 0.000537705 
r55 412 456 0.00162999 
r56 410 412 0.000537705 
r57 408 410 0.0285508 
r58 399 451 0.1388 
r59 398 399 0.132996 
r60 397 398 0.0171733 
r61 394 395 0.0171733 
r62 393 394 0.0171733 
r63 392 393 0.0171733 
r64 391 397 0.0142401 
r65 391 395 0.00293318 
r66 390 422 0.00646891 
r67 390 392 0.00818451 
r68 388 444 0.202116 
r69 388 389 0.0147368 
r70 315 320 0.0072093 
r71 392 315 0.0566038 
r72 313 326 0.0072093 
r73 398 313 0.0566038 
r74 286 290 0.0072093 
r75 397 286 0.0566038 
r76 262 266 0.0072093 
r77 395 262 0.0566038 
r78 238 242 0.0072093 
r79 394 238 0.0566038 
r80 214 218 0.0072093 
r81 393 214 0.0566038 
r82 194 197 0.0022831 
r83 416 194 0.0375475 
r84 194 457 0.00547945 
r85 414 193 0.00210084 
r86 191 193 0.000537705 
r87 410 191 0.00210084 
r88 193 182 0.0105115 
r89 415 182 0.00712251 
r90 178 197 0.0187738 
r91 182 178 0.00376393 
r92 416 178 0.00712251 
r93 176 191 0.0142754 
r94 408 176 0.00356125 
r95 460 173 0.345778 
r96 172 468 0.0220132 
r97 172 173 0.319822 
r98 166 153 0.00249413 
r99 173 153 0.0425532 
r100 149 166 0.00249413 
r101 173 149 0.0425532 
r102 460 144 0.345778 
r103 143 467 0.0220132 
r104 143 144 0.319822 
r105 137 124 0.00249413 
r106 144 124 0.0425532 
r107 120 137 0.00249413 
r108 144 120 0.0425532 
r109 460 115 0.345778 
r110 114 466 0.0220132 
r111 114 115 0.319822 
r112 108 95 0.00249413 
r113 115 95 0.0425532 
r114 91 108 0.00249413 
r115 115 91 0.0425532 
r116 460 86 0.345778 
r117 85 464 0.0220132 
r118 85 86 0.319822 
r119 79 66 0.00249413 
r120 86 66 0.0425532 
r121 62 79 0.00249413 
r122 86 62 0.0425532 
r123 460 57 0.345778 
r124 56 463 0.0220132 
r125 56 57 0.319822 
r126 50 37 0.00249413 
r127 57 37 0.0425532 
r128 33 50 0.00249413 
r129 57 33 0.0425532 
r130 460 28 0.345778 
r131 27 461 0.0220132 
r132 27 28 0.319822 
r133 21 8 0.00249413 
r134 28 8 0.0425532 
r135 4 21 0.00249413 
r136 28 4 0.0425532 
.ends

.subckt PM_PC3T02U%noxref_2 8 18
c0 20 0 4.82415f
c1 18 0 0.993329f
c2 8 0 6.70932f
r3 18 20 0.158105 
r4 20 8 0.158526 
.ends

.subckt PM_PC3T02U%U27_padr 40 44 52 118 120 122 164 173
c0 253 0 16.1906f
c1 247 0 9.32043f
c2 238 0 15.9563f
c3 224 0 0.145078f
c4 223 0 0.0372956f
c5 222 0 0.0478417f
c6 221 0 0.0873247f
c7 218 0 6.60484f
c8 215 0 0.611623f
c9 213 0 0.153488f
c10 209 0 5.6389f
c11 207 0 0.516633f
c12 205 0 0.0693973f
c13 204 0 0.207306f
c14 203 0 0.411447f
c15 194 0 1.00638f
c16 189 0 2.06622f
c17 183 0 0.540884f
c18 173 0 1.07645f
c19 172 0 0.703354f
c20 168 0 2.46955f
c21 167 0 0.273036f
c22 164 0 0.856335f
c23 145 0 0.0984887f
c24 138 0 0.0817276f
c25 130 0 16.0806f
c26 122 0 1.07226f
c27 120 0 0.577412f
c28 118 0 1.01781f
c29 92 0 0.134724f
c30 88 0 0.432026f
c31 85 0 0.581709f
c32 84 0 0.371236f
c33 82 0 0.10558f
c34 79 0 1.7121f
c35 78 0 0.566054f
c36 75 0 0.392313f
c37 72 0 0.0460406f
c38 71 0 0.0322888f
c39 70 0 0.0767087f
c40 65 0 0.110937f
c41 62 0 0.0980321f
c42 58 0 0.315801f
c43 56 0 0.0767388f
c44 55 0 0.102686f
c45 52 0 1.30771f
c46 49 0 0.0447228f
c47 48 0 0.384784f
c48 44 0 2.28922f
c49 40 0 1.56404f
r50 253 240 0.172857 
r51 238 240 6 
r52 234 236 3.688 
r53 224 226 3 
r54 223 224 0.109474 
r55 223 221 0.0456991 
r56 221 222 0.147143 
r57 218 253 2 
r58 216 222 0.0446983 
r59 216 218 10.3129 
r60 215 226 0.30381 
r61 211 213 0.10375 
r62 247 209 0.185079 
r63 207 209 1.2 
r64 206 207 0.482857 
r65 204 206 0.0446983 
r66 204 205 0.125714 
r67 203 205 0.0446983 
r68 202 215 0.0446983 
r69 202 203 0.407619 
r70 199 200 6 
r71 196 238 6.88267 
r72 236 196 4.40667 
r73 194 196 6 
r74 194 199 0.8816 
r75 182 213 0.02 
r76 182 183 0.755 
r77 178 211 0.02 
r78 172 247 0.18836 
r79 172 173 0.0147368 
r80 167 200 0.0840267 
r81 165 167 0.0448127 
r82 165 168 2.62845 
r83 168 164 0.0773806 
r84 129 130 1.07733 
r85 110 122 168.333 
r86 110 145 3.92502 
r87 105 120 51.6667 
r88 104 105 1.66667 
r89 97 118 168.333 
r90 138 97 3.6393 
r91 189 92 6 
r92 89 192 0.8025 
r93 189 89 2.8475 
r94 89 130 6 
r95 88 145 0.77 
r96 192 88 6 
r97 85 187 1.2525 
r98 85 236 6 
r99 84 138 0.7825 
r100 187 84 6 
r101 183 82 6 
r102 79 180 0.8 
r103 178 79 2.045 
r104 79 129 6 
r105 180 78 6 
r106 75 176 0.482667 
r107 75 234 6 
r108 74 129 2.816 
r109 176 74 6 
r110 72 92 0.05 
r111 68 70 0.12 
r112 68 78 0.8825 
r113 66 82 0.04375 
r114 65 66 0.02 
r115 63 65 0.10375 
r116 62 72 0.0446983 
r117 61 71 0.0338756 
r118 61 62 0.1875 
r119 58 104 1.16667 
r120 57 71 0.0338756 
r121 57 58 0.245 
r122 55 71 0.00880368 
r123 55 56 0.25 
r124 51 56 0.0446983 
r125 51 52 1.2575 
r126 50 52 1.3775 
r127 48 50 0.0447588 
r128 48 49 0.544 
r129 70 44 2.375 
r130 39 63 0.02 
r131 39 40 1.40875 
r132 38 49 0.0447588 
r133 38 40 1.3775 
.ends

.subckt PM_PC3T02U%VDDO 757 762 769 776 783 790 797 804 863 869 873 927 958 963
+ 970 997 1056 1343 1347 1350 1355 1362 1369 1390 1418 1429 1437 1444 1450 1456
+ 1462 1468 1474 1480 1486 1496 1538 1555 1584 1589
c0 1589 0 20.8744f
c1 1581 0 4.2188f
c2 1572 0 6.89048f
c3 1563 0 8.82377f
c4 1558 0 6.16936f
c5 1555 0 51.1374f
c6 1534 0 2.98997f
c7 1500 0 9.65563f
c8 1493 0 0.484331f
c9 1486 0 1.38187f
c10 1480 0 2.71574f
c11 1474 0 1.36725f
c12 1468 0 1.72724f
c13 1462 0 1.91528f
c14 1456 0 0.823007f
c15 1450 0 1.52715f
c16 1444 0 2.4996f
c17 1441 0 3.0868f
c18 1426 0 0.505283f
c19 1422 0 30.348f
c20 1421 0 1.96564f
c21 1418 0 63.026f
c22 1417 0 1.61058f
c23 1368 0 51.3083f
c24 1358 0 0.598554f
c25 1357 0 1.41036f
c26 1355 0 3.00485f
c27 1347 0 2.50462f
c28 1329 0 0.331843f
c29 1325 0 0.149617f
c30 1319 0 0.234896f
c31 1309 0 0.619196f
c32 1305 0 0.191655f
c33 1301 0 0.616262f
c34 1296 0 2.25863f
c35 1292 0 2.34723f
c36 1255 0 9.76182f
c37 1078 0 0.332034f
c38 1074 0 8.31981f
c39 1073 0 3.50494f
c40 1050 0 0.457512f
c41 1021 0 4.04218f
c42 1015 0 2.47782f
c43 1011 0 0.259808f
c44 1007 0 0.00598355f
c45 1005 0 7.98277f
c46 1004 0 3.44417f
c47 999 0 0.913581f
c48 996 0 0.0193183f
c49 994 0 0.0208492f
c50 993 0 5.66353f
c51 990 0 0.180934f
c52 980 0 0.0967705f
c53 977 0 0.0596675f
c54 976 0 3.19619f
c55 975 0 1.09777f
c56 970 0 1.44769f
c57 967 0 0.451293f
c58 963 0 1.38396f
c59 951 0 0.350992f
c60 948 0 0.67777f
c61 944 0 0.0493251f
c62 943 0 0.675078f
c63 942 0 0.0298598f
c64 941 0 0.59798f
c65 940 0 0.232943f
c66 927 0 1.15105f
c67 809 0 7.38227f
c68 797 0 0.00989968f
c69 790 0 0.0234465f
c70 783 0 0.0106158f
c71 776 0 0.0106158f
c72 769 0 0.0106158f
c73 762 0 0.00937345f
c74 757 0 7.0982f
c75 729 0 12.026f
c76 727 0 19.7205f
c77 725 0 19.7202f
c78 723 0 19.7473f
c79 721 0 19.5334f
c80 719 0 19.72f
c81 717 0 11.8055f
c82 691 0 0.114758f
c83 690 0 6.34361f
c84 687 0 0.103657f
c85 686 0 6.26978f
c86 17 0 0.486838f
c87 16 0 6.73982f
c88 7 0 0.152029f
c89 6 0 6.75741f
r90 1584 1587 0.00394881 
r91 1581 1582 0.956244 
r92 1574 1575 0.279231 
r93 1572 1574 0.266538 
r94 1565 1566 0.273962 
r95 1563 1565 0.261509 
r96 1559 1560 1.79477 
r97 1558 1559 0.000373832 
r98 1552 1553 0.25634 
r99 1551 1552 0.0780392 
r100 1550 1551 0.0205664 
r101 1549 1550 0.0312854 
r102 1548 1549 0.0392157 
r103 1547 1548 0.0124619 
r104 1546 1547 0.0187364 
r105 1545 1546 0.0354684 
r106 1544 1545 0.0203486 
r107 1543 1544 0.0256209 
r108 1542 1543 0.01878 
r109 1536 1555 0.00304139 
r110 1553 1536 0.00174292 
r111 1534 1536 0.461538 
r112 1493 1496 0.0002 
r113 1493 1552 0.666667 
r114 1489 1551 0.6 
r115 1486 1489 0.4475 
r116 1483 1550 0.6 
r117 1480 1483 1.6625 
r118 1477 1549 0.666667 
r119 1474 1477 0.365 
r120 1471 1548 0.545455 
r121 1468 1471 1.4825 
r122 1465 1547 0.545455 
r123 1462 1465 1.63 
r124 1459 1546 0.75 
r125 1456 1459 0.1575 
r126 1453 1545 0.75 
r127 1450 1453 1.1525 
r128 1447 1544 0.5 
r129 1444 1447 1.455 
r130 1443 1542 0.00174292 
r131 1538 1443 0.00305011 
r132 1441 1443 0.461538 
r133 1437 1581 0.2 
r134 1433 1589 0.0039415 
r135 1587 1433 0.467422 
r136 1431 1433 0.5 
r137 1429 1431 0.181 
r138 1426 1429 0.17 
r139 1426 1553 1.5 
r140 1423 1424 0.5433 
r141 1422 1423 0.2247 
r142 1421 1437 0.0539366 
r143 1421 1424 0.099 
r144 1582 1417 0.698216 
r145 1415 1417 0.2 
r146 1415 1418 0.0136564 
r147 1575 1414 0.279231 
r148 1414 1412 0.279231 
r149 1412 1410 0.279231 
r150 1410 1408 0.266538 
r151 1406 1408 1.5 
r152 1406 1410 1.5 
r153 1406 1412 1.5 
r154 1406 1414 1.5 
r155 1406 1415 0.0314855 
r156 1566 1404 0.273962 
r157 1404 1402 0.273962 
r158 1402 1400 0.273962 
r159 1400 1398 0.261509 
r160 1396 1398 1.5 
r161 1396 1400 1.5 
r162 1396 1402 1.5 
r163 1396 1404 1.5 
r164 1560 1395 0.000747664 
r165 1393 1395 0.2 
r166 1393 1396 0.0334274 
r167 1390 1393 0.01361 
r168 1384 1574 1.5 
r169 1384 1572 1.5 
r170 1384 1575 1.5 
r171 1382 1384 0.0694058 
r172 1376 1565 1.5 
r173 1376 1563 1.5 
r174 1376 1382 0.0805639 
r175 1376 1566 1.5 
r176 1372 1558 0.2 
r177 1372 1376 0.0404834 
r178 1369 1372 0.0165962 
r179 1368 1437 0.0234268 
r180 1368 1384 0.0330312 
r181 1365 1587 0.5 
r182 1362 1365 0.181 
r183 1358 1542 1.5 
r184 1358 1362 0.17 
r185 1357 1422 0.5293 
r186 1353 1355 0.0526456 
r187 1350 1353 0.0552365 
r188 1331 1334 3 
r189 1500 1331 0.0677429 
r190 1329 1331 3 
r191 1500 1321 0.1116 
r192 1531 1321 0.0028 
r193 1319 1321 6 
r194 1255 1531 0.2648 
r195 1254 1531 0.2664 
r196 1253 1531 0.2664 
r197 1076 1309 1.2 
r198 1074 1076 1.03355 
r199 1073 1074 9.91613 
r200 1069 1078 1 
r201 1066 1325 3 
r202 1063 1066 0.2885 
r203 1063 1305 2 
r204 1319 1034 0.000149533 
r205 1357 1033 0.0555566 
r206 1033 1034 6 
r207 1032 1334 0.0444444 
r208 1329 1032 7.40741e-05 
r209 1357 1031 0.0279474 
r210 1031 1032 1.5 
r211 1305 1030 0.000233918 
r212 1423 1030 2 
r213 1309 1028 0.000114123 
r214 1422 1028 1.2 
r215 1078 1026 0.000100503 
r216 1424 1026 1 
r217 1325 1024 0.000299625 
r218 1423 1024 3 
r219 1301 1021 6 
r220 1301 1018 0.804286 
r221 1018 1074 6 
r222 1017 1056 1.337 
r223 1054 1017 1.3065 
r224 1299 1017 6 
r225 1296 1015 3 
r226 1012 1299 2.63412 
r227 1296 1012 0.535294 
r228 1012 1073 6 
r229 1292 1011 6 
r230 1292 1008 3.395 
r231 1008 1054 6 
r232 1007 1050 0.0484211 
r233 1543 1007 2 
r234 1005 1069 0.219259 
r235 1004 1066 0.0845 
r236 1003 1021 5.04429 
r237 997 999 0.605623 
r238 995 1063 1.917 
r239 995 996 0.0149881 
r240 993 1056 0.4775 
r241 993 994 0.013668 
r242 992 1015 2.68353 
r243 988 1011 0.175 
r244 987 990 0.1525 
r245 987 988 0.02 
r246 980 1054 0.5685 
r247 979 1534 0.526 
r248 979 1005 0.0447005 
r249 978 1534 2.122 
r250 978 1004 0.0446983 
r251 976 1003 0.0446983 
r252 976 977 3.31857 
r253 997 975 0.584127 
r254 974 977 0.0446983 
r255 974 975 1.02286 
r256 969 996 0.0313149 
r257 969 970 1.51 
r258 968 994 0.013668 
r259 967 996 0.0149881 
r260 967 968 0.2995 
r261 962 994 0.0337919 
r262 962 963 1.64138 
r263 999 958 1.36714 
r264 948 951 0.81913 
r265 947 951 0.309565 
r266 943 992 0.0468981 
r267 943 944 1.18957 
r268 941 947 0.0446983 
r269 941 942 1.43478 
r270 940 944 0.0446983 
r271 939 942 0.0446983 
r272 939 940 0.521739 
r273 926 990 0.02 
r274 926 927 1.3925 
r275 920 1441 2.122 
r276 920 980 0.0446983 
r277 951 873 5.56667 
r278 948 869 5.56667 
r279 863 1050 5.54444 
r280 809 757 0.159252 
r281 820 757 0.159252 
r282 757 827 0.159252 
r283 731 820 0.0829907 
r284 757 731 0.0291589 
r285 1582 731 0.1 
r286 762 729 0.793846 
r287 1572 729 1.5 
r288 769 727 0.55145 
r289 1574 727 1.5 
r290 776 725 0.55145 
r291 1575 725 1.5 
r292 783 723 0.55145 
r293 1414 723 1.5 
r294 790 721 0.55145 
r295 1412 721 1.5 
r296 797 719 0.55145 
r297 1410 719 1.5 
r298 804 717 0.793846 
r299 1408 717 1.5 
r300 715 762 0.842637 
r301 1563 715 1.5 
r302 713 769 0.585344 
r303 1565 713 1.5 
r304 711 776 0.585344 
r305 1566 711 1.5 
r306 709 783 0.585344 
r307 1404 709 1.5 
r308 707 790 0.585344 
r309 1402 707 1.5 
r310 705 797 0.585344 
r311 1400 705 1.5 
r312 703 804 0.842637 
r313 1398 703 1.5 
r314 757 701 0.0391734 
r315 1560 701 0.2 
r316 699 757 0.0397569 
r317 1559 699 0.2 
r318 697 827 0.73271 
r319 696 809 0.737944 
r320 695 757 0.73271 
r321 694 757 0.737944 
r322 691 695 0.0451326 
r323 691 757 2.504 
r324 690 697 0.0451326 
r325 690 757 2.44889 
r326 687 694 0.045921 
r327 687 757 2.687 
r328 686 696 0.045921 
r329 686 757 2.885 
r330 323 1406 0.0601494 
r331 1396 323 0.0634357 
r332 323 1353 0.00227273 
r333 322 1347 0.0620926 
r334 1343 322 0.0688218 
r335 1382 322 0.0025 
r336 17 1531 1.51848 
r337 16 1255 0.0447329 
r338 16 1531 1.51162 
r339 15 1331 0.0737243 
r340 15 17 0.0447329 
r341 1254 7 0.0447329 
r342 7 1531 1.51848 
r343 6 1253 0.0447329 
r344 6 1531 1.51162 
.ends

.subckt PM_PC3T02U%net_m67_VSSO_res 9 38
c0 39 0 0.698822f
c1 33 0 0.892136f
c2 30 0 0.842577f
c3 24 0 0.0629762f
c4 23 0 0.323002f
c5 22 0 0.0527767f
c6 21 0 1.36395f
c7 20 0 0.85566f
r8 33 39 2.46349 
r9 33 38 1.8 
r10 29 30 0.987826 
r11 25 39 0.596923 
r12 23 25 0.0472932 
r13 23 24 0.351765 
r14 21 29 0.0468981 
r15 21 22 2.02471 
r16 20 24 0.0446983 
r17 19 22 0.0446983 
r18 19 20 1.4 
r19 30 9 5.56667 
.ends

.subckt PM_PC3T02U%net_m32_VSSO_res 41 69 76 81 88 120
c0 120 0 0.73297f
c1 116 0 0.809617f
c2 114 0 0.0941719f
c3 98 0 0.0628754f
c4 92 0 0.235615f
c5 88 0 0.519409f
c6 86 0 0.19588f
c7 85 0 0.135544f
c8 81 0 0.519409f
c9 76 0 0.519409f
c10 74 0 0.102851f
c11 73 0 0.162435f
c12 69 0 0.72564f
c13 48 0 0.585952f
c14 46 0 0.0476192f
c15 45 0 0.37908f
r16 114 116 0.0223492 
r17 111 114 0.124706 
r18 99 120 85 
r19 96 116 2.20253 
r20 95 97 6.2212 
r21 95 96 1.5553 
r22 94 95 10.0922 
r23 93 98 2.23066 
r24 92 99 3.37824 
r25 92 93 10.8571 
r26 87 98 0.93595 
r27 87 88 85 
r28 86 97 4.70046 
r29 85 98 2.23066 
r30 85 86 9 
r31 80 97 1.5553 
r32 80 81 85 
r33 75 94 1.5553 
r34 75 76 85 
r35 73 94 2.90323 
r36 73 74 10.8571 
r37 68 74 3.37824 
r38 68 69 85 
r39 47 48 0.18 
r40 111 46 0.0446983 
r41 45 47 0.0446983 
r42 45 46 0.521176 
r43 48 41 5.56667 
.ends

.subckt PM_PC3T02U%VSS 805 827 836 858 863 874 877 883
c0 883 0 90.8882f
c1 874 0 55.0992f
c2 861 0 2.37405f
c3 858 0 0.00368951f
c4 855 0 1.24098f
c5 836 0 4.21667f
c6 835 0 43.7196f
c7 824 0 1.88726f
c8 816 0 15.3158f
c9 802 0 1.45501f
c10 773 0 24.8153f
c11 771 0 0.0842555f
c12 770 0 10.2858f
c13 769 0 0.0657505f
c14 768 0 7.41328f
c15 767 0 0.571035f
c16 766 0 0.184939f
c17 764 0 0.57837f
c18 763 0 0.0372194f
c19 756 0 0.144425f
c20 747 0 8.77495f
c21 745 0 0.194648f
c22 743 0 1.90581f
c23 628 0 2.46629f
c24 620 0 2.22402f
c25 612 0 1.35142f
c26 610 0 0.223731f
c27 608 0 0.276497f
c28 605 0 25.5671f
c29 599 0 0.816164f
c30 598 0 6.34069f
c31 595 0 0.0994388f
c32 592 0 2.03915f
c33 586 0 0.137389f
c34 585 0 2.48617f
c35 584 0 0.154374f
c36 583 0 2.25375f
c37 539 0 0.162892f
c38 537 0 0.721903f
c39 535 0 0.203897f
c40 510 0 2.94262f
c41 496 0 3.0577f
c42 494 0 0.031054f
c43 490 0 6.9099f
c44 489 0 0.161087f
c45 474 0 3.75184f
c46 471 0 2.9639f
r47 881 883 0.000702051 
r48 880 881 0.0832563 
r49 877 880 0.000703354 
r50 873 874 0.00318245 
r51 870 871 0.0344168 
r52 869 870 0.167059 
r53 868 869 0.128574 
r54 867 868 0.0141176 
r55 861 873 0.461538 
r56 855 858 1.28857 
r57 855 871 1.5 
r58 849 869 0.0535714 
r59 835 836 1.7665 
r60 831 873 0.00119641 
r61 871 831 0.0758524 
r62 829 831 0.428571 
r63 827 829 0.189 
r64 824 827 0.013 
r65 824 881 0.131579 
r66 820 821 0.56934 
r67 819 820 1.12447 
r68 816 819 0.628223 
r69 816 870 0.3 
r70 809 867 0.089651 
r71 863 809 0.00438684 
r72 807 809 0.428571 
r73 805 807 0.189 
r74 802 805 0.013 
r75 802 880 0.131579 
r76 836 796 2.59036 
r77 770 771 0.0338756 
r78 768 849 2.8715 
r79 768 769 0.0338756 
r80 762 771 0.0338756 
r81 761 769 0.0338756 
r82 758 771 0.00880368 
r83 758 836 0.958 
r84 757 769 0.00880368 
r85 757 836 0.986 
r86 756 764 0.0574488 
r87 766 756 0.0632911 
r88 753 763 0.0448201 
r89 750 861 1.518 
r90 749 861 0.426 
r91 747 796 1.08482 
r92 743 753 2.13041 
r93 770 622 0.733 
r94 836 622 1.93 
r95 620 789 3 
r96 617 849 1.612 
r97 763 617 1.283 
r98 617 868 1.5 
r99 615 836 1.07807 
r100 745 615 1.06072 
r101 615 628 1 
r102 789 612 0.24 
r103 820 612 1.5 
r104 622 610 3 
r105 819 610 3 
r106 608 796 3 
r107 821 608 3 
r108 605 813 1.1314 
r109 605 867 0.125 
r110 604 628 0.0075 
r111 625 604 0.056 
r112 813 604 0.24 
r113 602 767 0.102486 
r114 602 766 0.0155975 
r115 773 602 1 
r116 600 773 0.9662 
r117 600 625 0.02 
r118 599 762 0.5005 
r119 750 599 0.0446983 
r120 598 761 0.5005 
r121 749 598 0.0446983 
r122 597 620 0.830244 
r123 596 620 0.573659 
r124 595 835 1.337 
r125 743 595 0.0448201 
r126 591 592 1.37048 
r127 586 597 0.0448242 
r128 586 587 0.678222 
r129 585 592 0.0447675 
r130 585 587 0.650667 
r131 584 596 0.0446983 
r132 583 591 0.0447067 
r133 583 584 1.45854 
r134 538 539 0.147619 
r135 534 535 0.14988 
r136 747 534 0.0380723 
r137 531 533 0.143333 
r138 745 530 0.0385542 
r139 528 530 0.14506 
r140 836 527 0.159 
r141 510 836 0.159 
r142 509 539 0.02 
r143 509 527 1.247 
r144 508 535 0.02 
r145 508 510 1.243 
r146 836 507 0.192 
r147 505 836 0.192 
r148 504 505 0.342 
r149 836 504 0.192 
r150 502 836 0.192 
r151 501 502 0.342 
r152 836 501 0.192 
r153 499 836 0.192 
r154 498 499 0.342 
r155 836 498 0.192 
r156 496 836 0.192 
r157 495 538 0.02 
r158 495 507 1.214 
r159 494 537 0.04 
r160 494 496 0.243 
r161 492 534 0.02 
r162 492 537 0.938734 
r163 490 538 0.0380952 
r164 490 767 4.80524 
r165 489 764 0.555238 
r166 489 533 0.0380952 
r167 836 485 0.159 
r168 483 836 0.159 
r169 482 483 0.408 
r170 836 482 0.159 
r171 480 836 0.159 
r172 479 480 0.408 
r173 836 479 0.159 
r174 477 836 0.159 
r175 476 477 0.408 
r176 836 476 0.159 
r177 474 836 0.159 
r178 473 533 0.02 
r179 473 485 1.247 
r180 472 530 0.02 
r181 472 474 1.243 
r182 471 531 0.02 
r183 470 528 0.02 
r184 470 471 4.69271 
.ends

.subckt PM_PC3T02U%U27_U69$7_gate 197 202 207 212 217 222 227 232 249
c0 379 0 0.256896f
c1 375 0 0.130993f
c2 373 0 0.469067f
c3 368 0 0.470475f
c4 363 0 0.472788f
c5 354 0 2.82662f
c6 338 0 0.46935f
c7 337 0 0.23872f
c8 336 0 0.231486f
c9 335 0 0.219244f
c10 334 0 0.304369f
c11 332 0 0.273588f
c12 330 0 0.0792102f
c13 329 0 0.329567f
c14 326 0 6.54958f
c15 320 0 4.49005f
c16 319 0 0.767959f
c17 315 0 1.18024f
c18 314 0 0.751975f
c19 310 0 1.20879f
c20 309 0 0.72468f
c21 306 0 0.157001f
c22 305 0 1.19493f
c23 304 0 0.531301f
c24 303 0 0.305366f
c25 300 0 0.136486f
c26 294 0 0.0903556f
c27 286 0 0.171215f
c28 280 0 0.680566f
c29 272 0 0.534786f
c30 264 0 0.535121f
c31 256 0 0.535687f
c32 250 0 0.306758f
c33 249 0 0.278026f
c34 241 0 0.163718f
c35 240 0 0.619504f
c36 239 0 0.172465f
c37 238 0 0.615146f
c38 237 0 0.171476f
c39 236 0 0.615146f
c40 235 0 0.171476f
c41 234 0 0.551149f
c42 232 0 3.10391f
c43 227 0 3.04446f
c44 222 0 3.04443f
c45 217 0 3.04445f
c46 212 0 3.04448f
c47 207 0 3.04452f
c48 202 0 3.04448f
c49 197 0 3.10222f
r50 340 379 0.00341463 
r51 338 340 3 
r52 333 338 0.05061 
r53 333 334 0.662857 
r54 332 338 0.05061 
r55 331 332 0.202353 
r56 329 334 0.0446983 
r57 329 330 0.352857 
r58 326 375 6 
r59 324 330 0.0448488 
r60 324 326 6.78194 
r61 321 337 0.102295 
r62 320 331 0.0487211 
r63 320 321 5.332 
r64 319 337 0.0221154 
r65 318 373 0.000487805 
r66 370 318 0.055122 
r67 317 319 0.0758231 
r68 317 318 1.5 
r69 316 336 0.100797 
r70 315 337 0.102295 
r71 315 316 1.457 
r72 314 336 0.0217567 
r73 313 368 0.00292683 
r74 365 313 0.0526829 
r75 312 314 0.078061 
r76 312 313 1.5 
r77 311 335 0.0981617 
r78 310 336 0.100797 
r79 310 311 1.492 
r80 309 335 0.0211035 
r81 308 363 0.00536585 
r82 360 308 0.0502439 
r83 307 309 0.0822179 
r84 307 308 1.5 
r85 305 335 0.0981617 
r86 305 306 1.475 
r87 304 306 0.0611952 
r88 356 303 0.0521951 
r89 302 304 0.135887 
r90 302 303 3 
r91 298 375 0.130323 
r92 297 300 0.153548 
r93 297 298 0.02 
r94 294 354 6 
r95 292 300 0.02 
r96 292 294 0.132903 
r97 291 354 3.99613 
r98 290 291 0.026898 
r99 286 290 0.10143 
r100 286 249 0.106667 
r101 241 280 1.85294 
r102 240 272 5.05882 
r103 239 272 5.05882 
r104 238 264 5.05882 
r105 237 264 5.05882 
r106 236 256 5.05882 
r107 235 256 5.05882 
r108 234 250 1.85294 
r109 229 241 3.88985 
r110 229 232 183.96 
r111 224 240 3.88985 
r112 224 227 183.96 
r113 219 239 3.88985 
r114 219 222 183.96 
r115 214 238 3.88985 
r116 214 217 183.96 
r117 209 237 3.88985 
r118 209 212 183.96 
r119 204 236 3.88985 
r120 204 207 183.96 
r121 199 235 3.88985 
r122 199 202 183.96 
r123 194 234 3.88985 
r124 194 197 183.96 
r125 280 135 0.00142683 
r126 379 135 3 
r127 272 117 0.00142683 
r128 373 117 3 
r129 264 92 0.00142683 
r130 368 92 3 
r131 272 81 0.0277856 
r132 370 81 3 
r133 256 56 0.00142683 
r134 363 56 3 
r135 264 45 0.0277856 
r136 365 45 3 
r137 250 20 0.00142683 
r138 356 20 3 
r139 256 9 0.0277856 
r140 360 9 3 
.ends

.subckt PM_PC3T02U%VSSO 350 356 360 418 656 867 871 878 907 914 921 940 942 947
+ 950 957 963 967 971 975 982 988 995 1001 1005 1012 1018 1022 1029 1035 1047
+ 1087 1092 1097 1103
c0 1103 0 31.8024f
c1 1090 0 2.00279f
c2 1087 0 11.1387f
c3 1081 0 7.93618f
c4 1079 0 6.95936f
c5 1074 0 6.96114f
c6 1069 0 6.99704f
c7 1064 0 6.99673f
c8 1059 0 6.99617f
c9 1051 0 0.0974004f
c10 1047 0 0.00391448f
c11 1042 0 8.95235f
c12 1035 0 0.342408f
c13 1022 0 1.36597f
c14 1018 0 1.40025f
c15 1005 0 1.35721f
c16 1001 0 1.35624f
c17 988 0 1.34294f
c18 975 0 1.19901f
c19 971 0 2.00715f
c20 967 0 0.838689f
c21 963 0 1.37238f
c22 950 0 1.38345f
c23 947 0 1.69151f
c24 945 0 0.206491f
c25 942 0 0.00104091f
c26 940 0 8.25608e-19
c27 938 0 8.96457f
c28 926 0 7.86203f
c29 920 0 1.27875f
c30 910 0 1.65707f
c31 907 0 58.2584f
c32 874 0 1.34819f
c33 871 0 10.6383f
c34 864 0 0.185758f
c35 857 0 0.111147f
c36 851 0 0.0982158f
c37 849 0 0.145147f
c38 847 0 0.0416102f
c39 846 0 0.329898f
c40 845 0 2.40879f
c41 842 0 4.64774f
c42 839 0 0.113585f
c43 838 0 0.0401265f
c44 837 0 1.53271f
c45 835 0 0.0508531f
c46 834 0 0.326639f
c47 798 0 34.7249f
c48 797 0 0.69353f
c49 793 0 0.518227f
c50 787 0 0.708327f
c51 783 0 0.033832f
c52 782 0 3.2538f
c53 780 0 0.383003f
c54 779 0 0.713156f
c55 778 0 0.303464f
c56 777 0 3.27963f
c57 776 0 0.383249f
c58 774 0 0.50086f
c59 772 0 0.0159833f
c60 771 0 0.582608f
c61 767 0 1.88548f
c62 765 0 0.0583091f
c63 764 0 0.180634f
c64 763 0 0.343387f
c65 730 0 0.122915f
c66 729 0 8.91081f
c67 696 0 0.264721f
c68 692 0 7.03694f
c69 688 0 0.146306f
c70 486 0 0.109912f
c71 482 0 0.60392f
c72 466 0 0.893677f
c73 464 0 0.103654f
c74 462 0 0.0450128f
c75 460 0 1.48999f
c76 459 0 0.0312995f
c77 458 0 0.347126f
c78 445 0 0.803546f
c79 441 0 0.539718f
c80 437 0 0.0481945f
c81 436 0 0.43819f
c82 418 0 0.114597f
c83 411 0 0.120775f
c84 320 0 7.04494f
c85 284 0 14.034f
c86 234 0 14.036f
c87 184 0 14.0469f
c88 134 0 14.0469f
c89 84 0 14.0469f
c90 10 0 0.146306f
r91 1101 1103 0.00282778 
r92 1100 1101 0.355444 
r93 1097 1100 0.00283333 
r94 1092 1094 0.0211813 
r95 1090 1092 0.00325866 
r96 1053 1054 0.0140639 
r97 1046 1047 0.0126606 
r98 1081 1044 0.0113761 
r99 1042 1044 0.0638298 
r100 1039 1085 2 
r101 1035 1039 0.000380952 
r102 940 1046 0.013211 
r103 1042 940 0.000917431 
r104 938 940 0.000913242 
r105 938 1053 0.0638298 
r106 926 1053 0.0113242 
r107 924 926 0.0327869 
r108 923 924 0.029258 
r109 920 923 0.0131449 
r110 920 921 0.02 
r111 917 1101 0.357143 
r112 914 917 0.21 
r113 912 1087 0.00544385 
r114 1085 912 0.0345455 
r115 910 912 1 
r116 910 914 0.445 
r117 905 907 0.00612761 
r118 905 1081 0.0327869 
r119 1029 903 0.130435 
r120 903 1079 0.00301741 
r121 1076 903 0.00301741 
r122 901 903 0.0266667 
r123 901 905 0.0287785 
r124 1012 900 0.130435 
r125 900 1074 0.00301741 
r126 1071 900 0.00301741 
r127 898 900 0.0266667 
r128 898 901 0.0242129 
r129 995 897 0.130435 
r130 897 1069 0.00301741 
r131 1066 897 0.00301741 
r132 895 897 0.0266667 
r133 895 898 0.0242129 
r134 894 895 0.000615582 
r135 982 893 0.130435 
r136 893 1064 0.00301741 
r137 1061 893 0.00301741 
r138 891 893 0.0266667 
r139 891 894 0.0235973 
r140 957 890 0.130435 
r141 890 1059 0.00301741 
r142 1056 890 0.00301741 
r143 888 890 0.0266667 
r144 888 891 0.0242129 
r145 887 923 0.02 
r146 887 888 0.0277012 
r147 924 884 0.446124 
r148 881 1100 0.357143 
r149 878 881 0.21 
r150 876 1096 0.144076 
r151 1094 876 0.0332383 
r152 874 876 1 
r153 874 878 0.445 
r154 863 1085 0.134866 
r155 863 864 0.00180503 
r156 860 945 3 
r157 857 860 0.0536842 
r158 851 1051 0.0410689 
r159 849 851 3 
r160 848 849 0.148421 
r161 846 848 0.044878 
r162 846 847 0.407059 
r163 845 847 0.0446983 
r164 844 864 0.0865289 
r165 844 845 3.69059 
r166 841 857 0.02 
r167 841 842 6.41263 
r168 838 839 0.1275 
r169 837 838 0.0448391 
r170 836 837 2.75862 
r171 834 836 0.044715 
r172 834 835 0.466667 
r173 1022 833 0.285 
r174 831 833 0.6 
r175 1018 830 0.32 
r176 828 830 0.6 
r177 828 831 0.0396791 
r178 1005 827 0.36 
r179 825 827 0.6 
r180 825 828 0.043262 
r181 1001 824 0.37 
r182 822 824 0.6 
r183 822 825 0.0347594 
r184 821 822 0.0192513 
r185 988 820 0.3225 
r186 818 820 0.6 
r187 818 821 0.0858289 
r188 975 817 0.325 
r189 815 817 0.6 
r190 815 818 0.0253476 
r191 971 814 0.3425 
r192 812 814 0.6 
r193 812 815 0.0256684 
r194 967 811 0.04 
r195 809 811 0.75 
r196 809 812 0.0416043 
r197 963 808 0.365 
r198 806 808 0.6 
r199 806 809 0.0226738 
r200 950 805 0.3175 
r201 803 805 0.6 
r202 803 806 0.0223529 
r203 947 802 0.96 
r204 800 802 0.666667 
r205 800 803 0.0213904 
r206 799 1090 0.0200081 
r207 799 800 0.0809091 
r208 798 864 0.00180503 
r209 798 831 0.0277005 
r210 797 835 0.0450432 
r211 1096 797 1.29371 
r212 793 857 0.02 
r213 793 794 0.734737 
r214 789 1047 0.230275 
r215 787 1042 0.210275 
r216 783 945 0.109474 
r217 781 942 0.229041 
r218 781 782 0.0863581 
r219 779 938 0.209132 
r220 779 780 0.0863581 
r221 789 777 0.0861375 
r222 777 778 0.132033 
r223 787 776 0.0861375 
r224 772 774 0.201086 
r225 772 771 0.0421961 
r226 1051 771 1.01412 
r227 783 767 0.0420103 
r228 766 767 3.01467 
r229 764 766 0.0446983 
r230 764 765 0.274667 
r231 763 765 0.0447588 
r232 730 940 0.128 
r233 729 778 0.0473573 
r234 729 940 0.126 
r235 696 730 0.0473573 
r236 782 696 0.132033 
r237 692 940 0.126 
r238 691 947 1.1475 
r239 689 940 0.128 
r240 688 689 0.0473573 
r241 688 780 0.250407 
r242 774 656 5.56667 
r243 486 468 0.00693642 
r244 842 468 6 
r245 821 466 0.75 
r246 839 464 3 
r247 462 482 0.0494737 
r248 794 462 2 
r249 459 466 0.437895 
r250 459 460 0.0407126 
r251 691 458 0.0338756 
r252 444 486 0.0225434 
r253 444 445 1.14783 
r254 440 441 0.221176 
r255 436 440 0.0446983 
r256 436 437 0.608235 
r257 434 437 0.0446983 
r258 434 460 2.01647 
r259 417 458 0.00880368 
r260 417 418 0.1375 
r261 411 763 0.6025 
r262 411 464 0.0265396 
r263 445 360 5.56667 
r264 441 356 5.56667 
r265 350 482 5.54444 
r266 323 871 0.0419737 
r267 867 323 0.0413851 
r268 894 323 0.00128205 
r269 884 320 2.21804 
r270 320 1094 0.6 
r271 1029 284 0.00313778 
r272 1079 284 0.0652174 
r273 1044 273 0.0141284 
r274 273 1046 0.0652174 
r275 1012 234 0.00313778 
r276 1074 234 0.0652174 
r277 224 1029 0.00313778 
r278 1076 224 0.0652174 
r279 995 184 0.00313778 
r280 1069 184 0.0652174 
r281 174 1012 0.00313778 
r282 1071 174 0.0652174 
r283 982 134 0.00313778 
r284 1064 134 0.0652174 
r285 124 995 0.00313778 
r286 1066 124 0.0652174 
r287 957 84 0.00313778 
r288 1059 84 0.0652174 
r289 74 982 0.00313778 
r290 1061 74 0.0652174 
r291 34 942 0.0126027 
r292 940 34 0.0131507 
r293 1054 34 0.0652174 
r294 24 957 0.00313778 
r295 1056 24 0.0652174 
r296 10 776 0.250407 
r297 10 692 0.0473573 
.ends

.subckt PM_PC3T02U%U15_ngate 70 77 84 91 99 107 143 145 193 199
c0 245 0 16.5699f
c1 237 0 0.536127f
c2 236 0 0.726004f
c3 233 0 0.0908427f
c4 232 0 6.78558f
c5 230 0 0.207476f
c6 228 0 6.45272f
c7 225 0 0.100957f
c8 211 0 2.83504f
c9 201 0 0.609004f
c10 200 0 0.169969f
c11 199 0 3.04886f
c12 193 0 3.04886f
c13 153 0 0.39367f
c14 145 0 0.589087f
c15 143 0 0.836962f
c16 140 0 0.132932f
c17 137 0 0.140735f
c18 128 0 0.134739f
c19 125 0 1.38227f
c20 124 0 0.142261f
c21 121 0 0.815866f
c22 116 0 3.03248f
c23 114 0 0.0377296f
c24 113 0 0.0461791f
c25 112 0 0.0265254f
c26 111 0 0.0265254f
c27 107 0 1.06285f
c28 104 0 0.130827f
c29 103 0 1.63957f
c30 99 0 1.2709f
c31 96 0 0.0804526f
c32 95 0 0.252089f
c33 91 0 1.33816f
c34 88 0 0.346988f
c35 84 0 1.42004f
c36 81 0 0.25093f
c37 77 0 1.459f
c38 75 0 0.049496f
c39 74 0 0.292203f
c40 70 0 1.4301f
c41 26 0 0.464039f
r42 244 245 0.397333 
r43 243 244 4.944 
r44 240 243 2.19467 
r45 234 236 0.0753823 
r46 234 252 1.5 
r47 232 236 0.0782492 
r48 232 233 7.495 
r49 240 230 6 
r50 228 230 6 
r51 227 233 0.0449052 
r52 227 228 7.33746 
r53 223 225 0.0755556 
r54 216 223 0.02 
r55 237 208 0.00142683 
r56 205 237 0.0277856 
r57 201 237 5.05882 
r58 200 237 5.05882 
r59 195 201 3.88985 
r60 195 199 183.96 
r61 190 200 3.88985 
r62 190 193 183.96 
r63 140 145 60 
r64 140 160 3.77986 
r65 137 143 85 
r66 137 153 3.53757 