* File: pc3d01d.dist.sp.pex
* Created: Sun Jul  4 12:26:04 2010
* Program "Calibre xRC"
* Version "v2008.4_19.14"
* Nominal Temperature: 27C
* Circuit Temperature: 27C
* 
.subckt PM_PC3D01D%net_m2_VDDO_res 8 39
c0 39 0 2.04974f
c1 34 0 1.27518f
c2 18 0 0.0717299f
c3 15 0 0.147021f
c4 10 0 0.0679009f
c5 9 0 0.633874f
c6 8 0 0.311659f
c7 6 0 0.185541f
r8 36 39 3.87662 
r9 17 34 43.5 
r10 16 34 49.5 
r11 18 15 16.5 
r12 11 18 4.13452 
r13 10 16 3.35237 
r14 9 15 3.35237 
r15 9 10 56.025 
r16 11 8 6.95493 
r17 7 36 1.62175 
r18 7 8 5.625 
r19 6 17 3.35237 
r20 6 8 5.625 
.ends

.subckt PM_PC3D01D%U14_padr 12 62 68 76 138 140 142 189
c0 270 0 9.31822f
c1 265 0 1.94353f
c2 263 0 15.7098f
c3 254 0 0.163677f
c4 251 0 5.64094f
c5 249 0 0.501133f
c6 247 0 0.0674659f
c7 246 0 0.207306f
c8 245 0 0.394066f
c9 238 0 15.9249f
c10 231 0 0.639627f
c11 225 0 0.9255f
c12 219 0 1.72848f
c13 210 0 1.83699f
c14 204 0 0.596936f
c15 201 0 0.428337f
c16 196 0 0.0766032f
c17 195 0 0.489946f
c18 192 0 0.66192f
c19 190 0 0.704011f
c20 189 0 5.5788e-21
c21 164 0 0.093022f
c22 158 0 0.0843457f
c23 150 0 15.953f
c24 142 0 1.12826f
c25 140 0 0.570103f
c26 138 0 1.02293f
c27 108 0 0.400805f
c28 105 0 0.385796f
c29 104 0 0.371891f
c30 102 0 0.40312f
c31 98 0 0.421448f
c32 95 0 0.435871f
c33 92 0 0.226943f
c34 91 0 0.0197099f
c35 90 0 0.0742893f
c36 88 0 0.0473382f
c37 87 0 0.0694581f
c38 86 0 0.0828224f
c39 82 0 0.302114f
c40 80 0 0.0329814f
c41 79 0 0.0954138f
c42 76 0 1.27015f
c43 73 0 0.0687863f
c44 72 0 0.372728f
c45 68 0 2.00207f
c46 66 0 0.54906f
c47 62 0 2.30824f
c48 21 0 0.117916f
c49 20 0 0.033825f
c50 19 0 0.0510441f
c51 18 0 0.0886803f
c52 16 0 5.29399f
c53 12 0 1.06558f
r54 259 261 3.984 
r55 270 251 0.185079 
r56 249 251 1.2 
r57 248 249 0.482857 
r58 246 248 0.0446983 
r59 246 247 0.125714 
r60 245 247 0.0446983 
r61 240 263 6 
r62 238 240 0.172857 
r63 231 265 6 
r64 229 254 0.15871 
r65 229 231 0.867097 
r66 227 263 2.97067 
r67 261 227 8.02267 
r68 225 227 6 
r69 254 225 1.56387 
r70 203 265 2.38452 
r71 195 203 0.0446983 
r72 195 196 0.619355 
r73 192 196 0.0456388 
r74 191 201 0.0200258 
r75 191 192 0.791 
r76 190 270 0.18836 
r77 189 201 0.00412903 
r78 149 150 0.434667 
r79 130 142 168.333 
r80 130 164 3.92502 
r81 125 140 51.6667 
r82 124 125 1.66667 
r83 117 138 168.333 
r84 158 117 3.6393 
r85 219 112 6 
r86 109 222 0.8025 
r87 219 109 2.8475 
r88 109 150 6 
r89 108 164 0.77 
r90 222 108 6 
r91 105 217 1.2525 
r92 105 261 6 
r93 104 158 0.7825 
r94 217 104 6 
r95 210 102 6 
r96 99 213 0.8 
r97 210 99 2.88 
r98 99 149 6 
r99 213 98 6 
r100 95 208 0.482667 
r101 95 259 6 
r102 94 149 3.75467 
r103 208 94 6 
r104 92 112 0.05 
r105 88 98 0.642857 
r106 87 102 0.642857 
r107 86 92 0.0446983 
r108 85 91 0.0338756 
r109 85 86 0.1875 
r110 82 124 1.16667 
r111 81 91 0.0338756 
r112 81 82 0.245 
r113 79 91 0.00880368 
r114 79 80 0.25 
r115 75 80 0.0446983 
r116 75 76 1.2575 
r117 74 76 1.3775 
r118 72 74 0.0447588 
r119 72 73 0.544 
r120 90 68 2.375 
r121 66 90 0.12 
r122 65 88 0.0449572 
r123 65 66 0.8475 
r124 61 87 0.0449572 
r125 61 62 1.4975 
r126 60 73 0.0447588 
r127 60 62 1.3775 
r128 204 23 0.30381 
r129 21 23 3 
r130 20 21 0.109474 
r131 255 19 0.0446983 
r132 20 18 0.0456991 
r133 18 19 0.147143 
r134 255 16 10.3129 
r135 16 238 2 
r136 13 245 0.407619 
r137 13 204 0.0446983 
r138 190 12 0.0147368 
.ends

.subckt PM_PC3D01D%VSSO 169 332 495 565 569 612 903 907 914 943 950 962 974 976
+ 979 983 990 999 1006 1012 1024 1068 1074 1078 1084
c0 1084 0 31.3233f
c1 1071 0 3.52205f
c2 1068 0 26.8237f
c3 1060 0 7.92488f
c4 1058 0 6.96209f
c5 1052 0 6.96173f
c6 1047 0 6.96175f
c7 1041 0 6.96188f
c8 1036 0 6.96027f
c9 1027 0 1.62567f
c10 1024 0 0.00199756f
c11 1019 0 8.95235f
c12 1012 0 0.319472f
c13 1006 0 0.327268f
c14 983 0 0.840215f
c15 979 0 1.37894f
c16 976 0 0.00104108f
c17 974 0 8.25608e-19
c18 972 0 8.96457f
c19 960 0 7.84947f
c20 956 0 1.27875f
c21 946 0 1.65601f
c22 943 0 58.2621f
c23 910 0 1.33521f
c24 907 0 10.6369f
c25 900 0 0.191701f
c26 892 0 2.28617f
c27 890 0 0.0825798f
c28 889 0 0.199022f
c29 887 0 0.0927534f
c30 884 0 0.0203358f
c31 881 0 0.107983f
c32 880 0 0.0484324f
c33 879 0 1.50948f
c34 877 0 0.0594287f
c35 876 0 0.293756f
c36 868 0 12.3076f
c37 867 0 0.725625f
c38 864 0 2.24828f
c39 860 0 0.84818f
c40 854 0 0.708327f
c41 853 0 3.24323f
c42 851 0 0.383003f
c43 850 0 0.713156f
c44 849 0 0.297488f
c45 848 0 3.26283f
c46 847 0 0.383249f
c47 846 0 1.6124f
c48 843 0 0.0651132f
c49 842 0 0.31734f
c50 809 0 0.122915f
c51 808 0 8.73234f
c52 778 0 0.269574f
c53 774 0 7.03694f
c54 771 0 0.146306f
c55 617 0 0.10881f
c56 612 0 0.570259f
c57 593 0 0.527353f
c58 591 0 0.127757f
c59 588 0 1.47368f
c60 587 0 0.238183f
c61 583 0 0.994981f
c62 582 0 0.0131245f
c63 580 0 0.146943f
c64 574 0 0.0153252f
c65 569 0 0.620371f
c66 565 0 0.603881f
c67 508 0 5.37124f
c68 410 0 14.0382f
c69 360 0 14.0387f
c70 247 0 14.0387f
c71 197 0 14.0383f
c72 34 0 14.0362f
c73 10 0 0.146306f
r74 1082 1084 0.00282778 
r75 1081 1082 0.355444 
r76 1078 1081 0.00283333 
r77 1073 1075 0.00445269 
r78 1073 1074 0.02 
r79 1071 1073 0.00667904 
r80 1065 1066 0.176417 
r81 1064 1065 0.129144 
r82 1029 1030 0.0140639 
r83 1023 1024 0.0126606 
r84 1060 1021 0.0113761 
r85 1019 1021 0.0638298 
r86 1016 1066 2 
r87 1012 1016 0.000761905 
r88 1006 1065 2 
r89 974 1023 0.013211 
r90 1019 974 0.000917431 
r91 972 974 0.000913242 
r92 972 1029 0.0638298 
r93 961 962 0.02 
r94 960 1029 0.0113242 
r95 958 960 0.0327869 
r96 958 961 0.0186572 
r97 956 958 0.029258 
r98 953 1082 0.357143 
r99 950 953 0.21 
r100 948 1068 0.00544385 
r101 1066 948 0.0327273 
r102 946 948 1 
r103 946 950 0.445 
r104 941 943 0.00612761 
r105 941 1060 0.0327869 
r106 1054 939 0.00301483 
r107 939 1058 0.00301741 
r108 937 939 0.0266667 
r109 937 941 0.0287785 
r110 999 936 0.130435 
r111 936 1052 0.00301741 
r112 1049 936 0.00301741 
r113 934 936 0.0266667 
r114 934 937 0.0242129 
r115 1043 933 0.00301483 
r116 933 1047 0.00301741 
r117 931 933 0.0266667 
r118 931 934 0.0242129 
r119 930 931 0.000615582 
r120 990 929 0.130435 
r121 929 1041 0.00301741 
r122 1038 929 0.00301741 
r123 927 929 0.0266667 
r124 927 930 0.0235973 
r125 1032 926 0.00301483 
r126 926 1036 0.00301741 
r127 924 926 0.0266667 
r128 924 927 0.0242129 
r129 923 956 0.02 
r130 923 924 0.0277012 
r131 961 920 0.427466 
r132 917 1081 0.357143 
r133 914 917 0.21 
r134 912 1077 0.148897 
r135 1075 912 0.0151391 
r136 910 912 1 
r137 910 914 0.445 
r138 899 1064 0.11615 
r139 899 900 0.00185772 
r140 891 900 0.0857909 
r141 891 892 3.63314 
r142 889 892 0.0448303 
r143 889 890 0.199481 
r144 886 890 0.0447008 
r145 886 887 0.0831579 
r146 880 881 0.135 
r147 879 880 0.0448391 
r148 878 879 2.75862 
r149 876 878 0.044715 
r150 876 877 0.466667 
r151 983 875 0.04 
r152 873 875 0.75 
r153 979 872 0.365 
r154 870 872 0.6 
r155 870 873 0.0226738 
r156 869 1071 0.02 
r157 869 870 0.105134 
r158 868 900 0.00185772 
r159 868 873 0.0460963 
r160 867 877 0.0450432 
r161 1077 867 1.29371 
r162 864 1027 6 
r163 884 860 0.0429996 
r164 860 864 0.00571429 
r165 856 1024 0.230275 
r166 854 1019 0.210275 
r167 852 976 0.229041 
r168 852 853 0.0863581 
r169 850 972 0.209132 
r170 850 851 0.0863581 
r171 856 848 0.0861375 
r172 848 849 0.132033 
r173 854 847 0.0861375 
r174 846 1027 0.0296296 
r175 845 846 3.74 
r176 842 845 0.0446983 
r177 842 843 0.542857 
r178 839 843 0.0449572 
r179 809 974 0.128 
r180 808 849 0.0473573 
r181 808 974 0.126 
r182 778 809 0.0473573 
r183 853 778 0.132033 
r184 774 974 0.126 
r185 772 974 0.128 
r186 771 772 0.0473573 
r187 771 851 0.250407 
r188 611 612 0.0652632 
r189 1064 593 0.75 
r190 591 617 0.052373 
r191 887 591 3 
r192 884 588 0.322105 
r193 588 611 2 
r194 839 587 0.2775 
r195 881 587 6 
r196 582 593 0.437895 
r197 582 583 0.0407126 
r198 578 580 0.149412 
r199 574 611 0.109474 
r200 572 580 0.02 
r201 572 583 2.01647 
r202 568 578 0.02 
r203 568 569 0.221176 
r204 617 565 0.238261 
r205 574 556 0.0480693 
r206 556 1027 0.307169 
r207 511 907 0.0419737 
r208 903 511 0.0413851 
r209 930 511 0.00128205 
r210 920 508 2.21804 
r211 508 1075 0.6 
r212 939 495 0.130435 
r213 999 410 0.00313778 
r214 1052 410 0.0652174 
r215 495 400 0.0031351 
r216 1054 400 0.0652174 
r217 360 495 0.00314046 
r218 1058 360 0.0652174 
r219 1021 349 0.0141284 
r220 349 1023 0.0652174 
r221 933 332 0.130435 
r222 990 247 0.00313778 
r223 1041 247 0.0652174 
r224 332 237 0.0031351 
r225 1043 237 0.0652174 
r226 197 332 0.00314046 
r227 1047 197 0.0652174 
r228 187 999 0.00313778 
r229 1049 187 0.0652174 
r230 926 169 0.130435 
r231 84 976 0.0126027 
r232 974 84 0.0131507 
r233 1030 84 0.0652174 
r234 169 74 0.0031351 
r235 1032 74 0.0652174 
r236 34 169 0.00314046 
r237 1036 34 0.0652174 
r238 24 990 0.00313778 
r239 1038 24 0.0652174 
r240 10 847 0.250407 
r241 10 774 0.0473573 
.ends

.subckt PM_PC3D01D%VSS 657 816 887 909 961 973 976 982
c0 982 0 88.7557f
c1 973 0 49.3771f
c2 960 0 54.7122f
c3 958 0 2.3768f
c4 945 0 1.21678f
c5 926 0 2.40161f
c6 920 0 12.3655f
c7 919 0 1.77829f
c8 906 0 1.88751f
c9 898 0 14.9273f
c10 884 0 1.45648f
c11 881 0 2.50616f
c12 844 0 25.3375f
c13 831 0 0.0691108f
c14 830 0 0.0657389f
c15 829 0 6.10336f
c16 828 0 0.745402f
c17 827 0 0.269279f
c18 824 0 0.0372194f
c19 816 0 2.07055f
c20 814 0 6.64767f
c21 813 0 0.218207f
c22 811 0 0.69473f
c23 804 0 8.61341f
c24 801 0 0.255493f
c25 800 0 0.0856199f
c26 799 0 1.18476f
c27 695 0 1.98507f
c28 687 0 1.40824f
c29 685 0 0.179289f
c30 683 0 0.271526f
c31 680 0 24.7575f
c32 675 0 1.0863f
c33 674 0 6.52093f
c34 668 0 2.03682f
c35 664 0 0.135881f
c36 663 0 2.4667f
c37 662 0 0.117466f
c38 661 0 2.25879f
c39 657 0 0.00279637f
c40 573 0 0.162892f
c41 571 0 0.72248f
c42 569 0 0.203897f
c43 544 0 2.94311f
c44 530 0 3.05953f
c45 528 0 0.031054f
c46 524 0 6.24623f
c47 523 0 0.161087f
c48 508 0 5.68764f
c49 505 0 3.2536f
r50 980 982 0.000702051 
r51 979 980 0.0832563 
r52 976 979 0.000703354 
r53 972 973 0.00318245 
r54 969 970 0.167059 
r55 968 969 0.0871386 
r56 967 968 0.0414357 
r57 966 967 0.0141176 
r58 965 966 0.00135593 
r59 958 972 0.461538 
r60 952 969 0.0535714 
r61 950 967 1.5 
r62 950 952 1.612 
r63 945 948 0.045 
r64 945 968 0.666667 
r65 926 965 0.6 
r66 924 960 0.0297924 
r67 924 926 3.23529 
r68 919 960 0.0158586 
r69 919 920 1.0295 
r70 913 972 0.00119641 
r71 970 913 0.110269 
r72 911 913 0.428571 
r73 909 911 0.189 
r74 906 909 0.013 
r75 906 980 0.131579 
r76 902 903 0.570964 
r77 901 902 1.12284 
r78 898 901 0.628223 
r79 898 970 0.3 
r80 891 965 0.0882951 
r81 961 891 0.00438684 
r82 889 891 0.428571 
r83 887 889 0.189 
r84 884 887 0.013 
r85 884 979 0.131579 
r86 954 881 1 
r87 843 878 0.02 
r88 843 844 0.9662 
r89 829 952 2.7305 
r90 829 830 0.0338756 
r91 824 950 1.283 
r92 823 831 0.0338756 
r93 822 830 0.0338756 
r94 819 831 0.00880368 
r95 818 830 0.00880368 
r96 816 873 2.59036 
r97 954 816 1.07807 
r98 819 816 0.88 
r99 818 816 1.064 
r100 815 960 0.0158586 
r101 815 816 1.9975 
r102 814 831 0.0338756 
r103 827 813 0.0632911 
r104 813 811 0.0574488 
r105 810 824 0.0448201 
r106 807 958 1.518 
r107 806 958 0.426 
r108 804 873 1.08482 
r109 801 954 1.06072 
r110 800 920 0.0425 
r111 799 800 0.0448201 
r112 799 810 2.13041 
r113 814 697 0.592 
r114 816 697 1.93 
r115 695 866 3 
r116 866 687 0.29193 
r117 902 687 1.5 
r118 697 685 3 
r119 901 685 3 
r120 683 873 3 
r121 903 683 3 
r122 680 895 1.1314 
r123 680 966 0.125 
r124 679 881 0.0075 
r125 878 679 0.056 
r126 895 679 0.24 
r127 677 828 0.102486 
r128 677 827 0.0155975 
r129 844 677 1 
r130 675 823 0.6415 
r131 807 675 0.0446983 
r132 674 822 0.6415 
r133 806 674 0.0446983 
r134 673 695 0.831219 
r135 672 695 0.572683 
r136 667 668 1.37048 
r137 664 673 0.0448242 
r138 664 665 0.678222 
r139 663 668 0.0447675 
r140 663 665 0.650667 
r141 662 672 0.0446983 
r142 661 667 0.0447067 
r143 661 662 1.45854 
r144 948 657 0.31875 
r145 572 573 0.147619 
r146 568 569 0.14988 
r147 804 568 0.0380723 
r148 565 567 0.143333 
r149 801 564 0.0385542 
r150 562 564 0.14506 
r151 816 561 0.159 
r152 544 816 0.159 
r153 543 573 0.02 
r154 543 561 1.247 
r155 542 569 0.02 
r156 542 544 1.243 
r157 816 541 0.192 
r158 539 816 0.192 
r159 538 539 0.342 
r160 816 538 0.192 
r161 536 816 0.192 
r162 535 536 0.342 
r163 816 535 0.192 
r164 533 816 0.192 
r165 532 533 0.342 
r166 816 532 0.192 
r167 530 816 0.192 
r168 529 572 0.02 
r169 529 541 1.214 
r170 528 571 0.04 
r171 528 530 0.243 
r172 526 568 0.02 
r173 526 571 0.938734 
r174 524 572 0.0380952 
r175 524 828 4.80524 
r176 523 811 0.555238 
r177 523 567 0.0380952 
r178 816 519 0.159 
r179 517 816 0.159 
r180 516 517 0.408 
r181 816 516 0.159 
r182 514 816 0.159 
r183 513 514 0.408 
r184 816 513 0.159 
r185 511 816 0.159 
r186 510 511 0.408 
r187 816 510 0.159 
r188 508 816 0.159 
r189 507 567 0.02 
r190 507 519 1.247 
r191 506 564 0.02 
r192 506 508 1.243 
r193 505 565 0.02 
r194 504 562 0.02 
r195 504 505 4.69271 
.ends

.subckt PM_PC3D01D%U14_MN4$11_gate 98 103 219 224 340 345 410 415 420 425 430
+ 435 449
c0 612 0 0.264624f
c1 608 0 0.432377f
c2 603 0 0.431723f
c3 598 0 0.431999f
c4 593 0 0.433563f
c5 588 0 0.434391f
c6 576 0 2.53433f
c7 572 0 0.236421f
c8 554 0 0.0501222f
c9 550 0 0.126441f
c10 548 0 1.09628f
c11 543 0 1.10468f
c12 538 0 1.09628f
c13 533 0 1.12251f
c14 529 0 0.847498f
c15 523 0 0.859973f
c16 521 0 0.170165f
c17 519 0 0.402049f
c18 516 0 0.430085f
c19 515 0 0.863899f
c20 514 0 0.804241f
c21 513 0 0.877326f
c22 511 0 0.872867f
c23 505 0 0.156445f
c24 504 0 8.9327f
c25 501 0 7.03755f
c26 499 0 0.14249f
c27 498 0 0.267597f
c28 496 0 0.474738f
c29 492 0 15.6279f
c30 487 0 1.41515f
c31 485 0 0.126896f
c32 480 0 0.113594f
c33 474 0 0.680018f
c34 473 0 0.0631592f
c35 464 0 0.535213f
c36 456 0 0.535717f
c37 450 0 0.300832f
c38 449 0 0.233998f
c39 442 0 0.16744f
c40 441 0 0.607864f
c41 440 0 0.168715f
c42 439 0 0.608092f
c43 438 0 0.169627f
c44 437 0 0.540411f
c45 435 0 3.10111f
c46 430 0 3.04886f
c47 425 0 3.04886f
c48 420 0 3.04886f
c49 415 0 3.04886f
c50 410 0 3.10222f
c51 357 0 0.974632f
c52 345 0 3.04886f
c53 344 0 0.168601f
c54 340 0 3.04886f
c55 339 0 0.169285f
c56 236 0 0.971967f
c57 224 0 3.04886f
c58 223 0 0.168289f
c59 219 0 3.04886f
c60 218 0 0.169346f
c61 115 0 0.975149f
c62 103 0 3.04886f
c63 102 0 0.169399f
c64 98 0 3.04886f
c65 97 0 0.169627f
r66 570 572 6 
r67 556 612 0.00341463 
r68 554 556 3 
r69 554 558 0.0138182 
r70 550 552 0.102703 
r71 547 608 0.00439024 
r72 605 547 0.0512195 
r73 545 547 1.5 
r74 545 548 0.117757 
r75 542 603 0.00195122 
r76 600 542 0.0536585 
r77 540 542 1.5 
r78 540 543 0.118253 
r79 537 598 0.000487805 
r80 595 537 0.055122 
r81 535 537 1.5 
r82 535 538 0.11974 
r83 531 593 0.00292683 
r84 590 531 0.0526829 
r85 529 531 1.5 
r86 529 533 0.0678788 
r87 525 588 0.00536585 
r88 585 525 0.0502439 
r89 523 525 1.5 
r90 523 527 0.0693333 
r91 558 521 0.0697717 
r92 554 519 0.0138182 
r93 518 519 0.141735 
r94 517 550 0.02 
r95 516 521 0.0586021 
r96 516 517 0.36 
r97 545 515 0.0999055 
r98 514 552 0.02 
r99 514 515 1.035 
r100 540 513 0.100897 
r101 548 513 1.437 
r102 535 511 0.0989138 
r103 543 511 1.448 
r104 509 533 0.0200093 
r105 538 509 1.437 
r106 507 527 0.02 
r107 533 507 1.472 
r108 504 518 0.0586021 
r109 504 505 10.913 
r110 501 572 6 
r111 499 501 3.75099 
r112 581 498 0.0521951 
r113 496 498 3 
r114 495 499 0.0509474 
r115 495 496 0.00866667 
r116 494 505 0.0610788 
r117 494 496 0.142 
r118 570 492 15.6586 
r119 490 492 6 
r120 487 490 1.388 
r121 487 576 6 
r122 484 576 3.376 
r123 480 485 0.0933197 
r124 473 484 0.0447517 
r125 485 473 0.157176 
r126 480 449 0.0666667 
r127 442 474 1.85294 
r128 441 464 5.05882 
r129 440 464 5.05882 
r130 439 456 5.05882 
r131 438 456 5.05882 
r132 437 450 1.85294 
r133 432 442 3.88985 
r134 432 435 183.96 
r135 427 441 3.88985 
r136 427 430 183.96 
r137 422 440 3.88985 
r138 422 425 183.96 
r139 417 439 3.88985 
r140 417 420 183.96 
r141 412 438 3.88985 
r142 412 415 183.96 
r143 407 437 3.88985 
r144 407 410 183.96 
r145 350 357 5.05882 
r146 349 357 5.05882 
r147 344 350 3.88985 
r148 344 345 183.96 
r149 339 349 3.88985 
r150 339 340 183.96 
r151 464 298 0.00142683 
r152 603 298 3 
r153 357 287 0.00133393 
r154 605 287 3 
r155 262 357 0.0278113 
r156 608 262 3 
r157 474 251 0.00142683 
r158 612 251 3 
r159 229 236 5.05882 
r160 228 236 5.05882 
r161 223 229 3.88985 
r162 223 224 183.96 
r163 218 228 3.88985 
r164 218 219 183.96 
r165 456 177 0.00142683 
r166 593 177 3 
r167 236 166 0.00133393 
r168 595 166 3 
r169 141 236 0.0278113 
r170 598 141 3 
r171 464 130 0.0277856 
r172 600 130 3 
r173 108 115 5.05882 
r174 107 115 5.05882 
r175 102 108 3.88985 
r176 102 103 183.96 
r177 97 107 3.88985 
r178 97 98 183.96 
r179 450 56 0.00142683 
r180 581 56 3 
r181 115 45 0.00133393 
r182 585 45 3 
r183 20 115 0.0278113 
r184 588 20 3 
r185 456 9 0.0277856 
r186 590 9 3 
.ends

.subckt PM_PC3D01D%net_m1_VDDO_res 7 33
c0 33 0 1.62201f
c1 29 0 0.16806f
c2 17 0 0.168477f
c3 16 0 0.77018f
c4 15 0 1.57678f
c5 14 0 0.0898207f
c6 10 0 0.0949465f
c7 9 0 0.119298f
c8 7 0 0.386312f
r9 16 33 2.05452 
r10 16 17 8.75861 
r11 15 29 66.7742 
r12 14 29 60.5806 
r13 11 15 3.35663 
r14 11 17 11.5758 
r15 10 14 3.35347 
r16 9 10 6.625 
r17 6 9 4.5965 
r18 6 7 4.56364 
.ends

.subckt PM_PC3D01D%VDDO 21 828 896 907 918 929 940 951 962 977 1189 1202 1205
+ 1260 1269 1558 1562 1565 1569 1577 1584 1591 1600 1610 1623 1629 1635 1680 1691
+ 1694 1699
c0 1699 0 20.319f
c1 1691 0 45.4557f
c2 1677 0 8.54625f
c3 1674 0 2.98997f
c4 1643 0 9.5721f
c5 1635 0 1.72199f
c6 1629 0 2.07811f
c7 1623 0 2.31703f
c8 1620 0 3.35178f
c9 1607 0 0.505082f
c10 1603 0 29.0776f
c11 1602 0 1.97484f
c12 1600 0 62.8661f
c13 1583 0 50.9389f
c14 1574 0 0.696813f
c15 1572 0 1.2453f
c16 1569 0 3.00652f
c17 1562 0 2.4994f
c18 1556 0 0.127329f
c19 1551 0 0.0724239f
c20 1549 0 1.09396f
c21 1542 0 0.330853f
c22 1538 0 0.14958f
c23 1532 0 0.230124f
c24 1528 0 0.661063f
c25 1524 0 0.332801f
c26 1520 0 0.194107f
c27 1514 0 2.81075f
c28 1512 0 0.652349f
c29 1507 0 1.45872f
c30 1505 0 0.988028f
c31 1503 0 0.0714314f
c32 1502 0 0.111846f
c33 1497 0 0.0909655f
c34 1496 0 2.98805f
c35 1495 0 0.0461449f
c36 1494 0 0.672161f
c37 1491 0 0.246825f
c38 1452 0 9.76182f
c39 1443 0 0.825958f
c40 1281 0 2.66842f
c41 1269 0 0.445888f
c42 1260 0 0.0819925f
c43 1227 0 0.119988f
c44 1222 0 0.39879f
c45 1221 0 0.117317f
c46 1219 0 0.00642564f
c47 1217 0 7.775f
c48 1216 0 8.83265f
c49 1209 0 0.0962101f
c50 1205 0 0.336966f
c51 1202 0 0.670535f
c52 1196 0 0.0301061f
c53 1195 0 0.967804f
c54 1189 0 1.25778f
c55 1124 0 3.63084f
c56 1089 0 5.39118f
c57 1074 0 1.29937f
c58 1070 0 0.615713f
c59 1066 0 8.82846f
c60 1064 0 6.7868f
c61 1062 0 0.588747f
c62 1056 0 0.170971f
c63 1053 0 0.0533066f
c64 1051 0 0.0989764f
c65 977 0 7.73649f
c66 969 0 7.33964f
c67 966 0 11.7156f
c68 955 0 19.4869f
c69 944 0 19.4869f
c70 933 0 19.5155f
c71 922 0 19.4869f
c72 911 0 19.4869f
c73 900 0 11.8398f
c74 853 0 0.210878f
c75 816 0 0.0533066f
c76 805 0 0.12462f
c77 804 0 5.89132f
c78 801 0 0.104443f
c79 800 0 6.15996f
c80 21 0 0.593784f
c81 17 0 0.486838f
c82 16 0 6.73322f
c83 7 0 0.152029f
c84 6 0 6.75738f
r85 1694 1697 0.00394881 
r86 1688 1689 0.415773 
r87 1687 1688 0.0124619 
r88 1686 1687 0.0351634 
r89 1685 1686 0.0234858 
r90 1684 1685 0.0699782 
r91 1676 1691 0.00304139 
r92 1689 1676 0.00174292 
r93 1674 1676 0.461538 
r94 1638 1688 0.545455 
r95 1635 1638 1.4825 
r96 1632 1687 0.545455 
r97 1629 1632 1.63 
r98 1626 1685 0.5 
r99 1623 1626 1.455 
r100 1622 1684 0.00174292 
r101 1680 1622 0.00305011 
r102 1620 1622 0.461538 
r103 1614 1699 0.0039415 
r104 1697 1614 0.467422 
r105 1612 1614 0.5 
r106 1610 1612 0.181 
r107 1607 1610 0.17 
r108 1607 1689 1.5 
r109 1604 1605 0.5433 
r110 1603 1604 0.2247 
r111 1602 1605 0.099 
r112 1598 1600 0.0136564 
r113 1597 1598 0.0314855 
r114 1596 1597 0.0601494 
r115 1595 1596 0.0634357 
r116 1594 1595 0.0334274 
r117 1591 1594 0.01361 
r118 1580 1697 0.5 
r119 1577 1580 0.181 
r120 1574 1577 0.17 
r121 1574 1684 1.5 
r122 1572 1603 0.5293 
r123 1554 1556 0.12 
r124 1544 1547 3 
r125 1643 1544 0.0677429 
r126 1542 1544 3 
r127 1643 1534 0.1116 
r128 1671 1534 0.0028 
r129 1532 1534 6 
r130 1517 1677 6 
r131 1512 1514 6 
r132 1512 1517 0.752258 
r133 1509 1556 0.02 
r134 1506 1554 0.02 
r135 1506 1507 2.92286 
r136 1551 1504 0.0456991 
r137 1504 1505 2.06857 
r138 1502 1505 0.0446983 
r139 1502 1503 0.0971429 
r140 1500 1503 0.0446983 
r141 1500 1549 1.64571 
r142 1498 1514 2.907 
r143 1497 1677 0.0571429 
r144 1496 1497 0.0579048 
r145 1494 1498 0.0448005 
r146 1494 1495 0.685977 
r147 1490 1495 0.050458 
r148 1490 1491 0.12 
r149 1452 1671 0.2648 
r150 1451 1671 0.2664 
r151 1450 1671 0.2664 
r152 1443 1491 7.46512 
r153 1442 1491 7.46512 
r154 1274 1524 1 
r155 1496 1271 3.35416 
r156 1271 1528 1.2 
r157 1266 1538 3 
r158 1263 1266 0.2885 
r159 1263 1520 2 
r160 1260 1263 2.755 
r161 1259 1260 1.8985 
r162 1258 1259 0.425 
r163 1532 1240 0.000149533 
r164 1572 1239 0.0555566 
r165 1239 1240 6 
r166 1238 1547 0.0444444 
r167 1542 1238 7.40741e-05 
r168 1572 1237 0.0279474 
r169 1237 1238 1.5 
r170 1520 1236 0.000233918 
r171 1604 1236 2 
r172 1528 1234 0.000114123 
r173 1603 1234 1.2 
r174 1524 1232 0.000100503 
r175 1605 1232 1 
r176 1538 1230 0.000299625 
r177 1604 1230 3 
r178 1551 1227 6 
r179 1549 1224 0.0557895 
r180 1224 1258 3 
r181 1509 1222 0.787143 
r182 1222 1259 6 
r183 1221 1281 0.0561431 
r184 1507 1221 6 
r185 1219 1269 0.0484211 
r186 1686 1219 2 
r187 1217 1274 0.219259 
r188 1216 1266 0.0845 
r189 1209 1258 0.8885 
r190 1208 1674 0.526 
r191 1208 1217 0.0447005 
r192 1207 1674 2.122 
r193 1207 1216 0.0446983 
r194 1202 1205 0.81913 
r195 1201 1205 0.309565 
r196 1195 1201 0.0446983 
r197 1195 1196 2.21913 
r198 1193 1196 0.0447246 
r199 1193 1281 4.4 
r200 1188 1227 0.0422277 
r201 1188 1189 1.5875 
r202 1184 1620 2.122 
r203 1184 1209 0.0446983 
r204 1126 1127 0.490516 
r205 1125 1126 0.232864 
r206 1124 1125 0.279437 
r207 1115 1116 0.279231 
r208 1114 1115 0.2665 
r209 1105 1106 0.273962 
r210 1104 1105 0.261472 
r211 1091 1092 0.278131 
r212 1088 1569 0.0526456 
r213 1565 1088 0.0552365 
r214 1596 1088 0.00227273 
r215 1594 1086 3 
r216 1594 1084 0.666667 
r217 1595 1082 1.5 
r218 1597 1080 1.5 
r219 1598 1078 3 
r220 1598 1076 3 
r221 1598 1074 2 
r222 1072 1562 0.0620926 
r223 1558 1072 0.0688218 
r224 1589 1072 0.0025 
r225 1066 1104 3.77358e-05 
r226 1064 1114 3.84615e-05 
r227 1056 1124 0.117559 
r228 1055 1056 0.119812 
r229 1055 1062 0.181784 
r230 1054 1076 0.0101408 
r231 1053 1074 0.122066 
r232 1052 1089 0.0616822 
r233 1051 1052 0.08 
r234 1051 1070 0.274084 
r235 980 982 0.0829907 
r236 980 1127 0.1 
r237 982 977 0.159252 
r238 977 989 0.159252 
r239 977 980 0.0291589 
r240 969 977 0.159252 
r241 966 1080 1.5 
r242 962 966 0.793846 
r243 959 962 0.842637 
r244 959 1082 1.5 
r245 951 955 0.55145 
r246 948 951 0.585344 
r247 940 944 0.55145 
r248 937 940 0.585344 
r249 929 933 0.55145 
r250 926 929 0.585344 
r251 922 1116 1.5 
r252 918 922 0.55145 
r253 915 918 0.585344 
r254 915 1106 1.5 
r255 911 1115 1.5 
r256 907 911 0.55145 
r257 904 907 0.585344 
r258 904 1105 1.5 
r259 900 1114 1.5 
r260 896 900 0.793846 
r261 893 896 0.842637 
r262 893 1104 1.5 
r263 888 1096 0.2 
r264 977 888 0.0391734 
r265 871 1091 0.185047 
r266 1089 871 0.0930841 
r267 869 871 0.2 
r268 869 977 0.0397569 
r269 859 1084 0.231776 
r270 1096 859 0.232523 
r271 1594 859 1 
r272 948 857 1.5 
r273 857 1082 0.261509 
r274 1595 857 1.5 
r275 955 855 1.5 
r276 855 1080 0.266538 
r277 1597 855 1.5 
r278 1598 853 1 
r279 851 1096 0.231028 
r280 1086 851 0.278131 
r281 1594 851 0.6 
r282 937 849 1.5 
r283 849 857 0.273962 
r284 1595 849 1.5 
r285 944 847 1.5 
r286 847 855 0.279231 
r287 1597 847 1.5 
r288 845 1076 0.279437 
r289 1078 845 0.279437 
r290 1598 845 0.6 
r291 843 1086 0.139065 
r292 1092 843 0.683365 
r293 1594 843 2 
r294 926 841 1.5 
r295 841 849 0.273962 
r296 1106 841 0.273962 
r297 1595 841 1.5 
r298 933 839 1.5 
r299 839 847 0.279231 
r300 1116 839 0.279231 
r301 1597 839 1.5 
r302 837 1078 0.232864 
r303 1127 837 0.139343 
r304 1598 837 0.857143 
r305 834 1091 2 
r306 834 1089 0.666667 
r307 834 1070 0.666667 
r308 1584 834 0.0165962 
r309 834 1092 0.666667 
r310 832 1105 1.5 
r311 832 1066 1.5 
r312 832 1589 0.0805639 
r313 834 832 0.0404834 
r314 832 1106 1.5 
r315 830 1115 1.5 
r316 830 1064 1.5 
r317 1583 830 0.0330312 
r318 1589 830 0.0694058 
r319 830 1116 1.5 
r320 828 1125 3 
r321 828 1124 0.666667 
r322 828 1062 0.6 
r323 828 1602 0.0532592 
r324 828 1583 0.0241042 
r325 828 1126 0.666667 
r326 818 853 0.0239252 
r327 818 1053 0.04 
r328 816 853 0.135327 
r329 816 1054 0.04 
r330 811 989 0.73271 
r331 810 969 0.737944 
r332 809 977 0.73271 
r333 808 977 0.737944 
r334 805 809 0.0451326 
r335 805 977 2.504 
r336 804 811 0.0451326 
r337 804 977 2.44889 
r338 801 808 0.045921 
r339 801 977 2.687 
r340 800 810 0.045921 
r341 800 977 2.885 
r342 21 1443 1.36978 
r343 21 1442 1.36978 
r344 17 1671 1.51848 
r345 16 1452 0.0447329 
r346 16 1671 1.51162 
r347 15 1544 0.0737243 
r348 15 17 0.0447329 
r349 1451 7 0.0447329 
r350 7 1671 1.51848 
r351 6 1450 0.0447329 
r352 6 1671 1.51162 
.ends

.subckt PM_PC3D01D%CIN 14 19 26 59 103 145
c0 141 0 7.07074f
c1 132 0 0.420752f
c2 124 0 15.6562f
c3 116 0 4.21592f
c4 111 0 0.176384f
c5 107 0 0.143541f
c6 105 0 5.71899f
c7 100 0 0.112303f
c8 98 0 0.0723692f
c9 96 0 0.0379464f
c10 95 0 3.153f
c11 94 0 3.30766f
c12 92 0 0.0895149f
c13 86 0 1.41181f
c14 85 0 0.0898897f
c15 82 0 0.0375884f
c16 81 0 0.855486f
c17 80 0 0.0338006f
c18 76 0 1.37568f
c19 73 0 0.0345401f
c20 72 0 0.568273f
c21 68 0 7.74777f
c22 62 0 0.246801f
c23 61 0 0.187286f
c24 59 0 0.582869f
c25 42 0 1.20908f
c26 38 0 0.0360401f
c27 35 0 0.0555356f
c28 30 0 0.418875f
c29 26 0 1.16772f
c30 24 0 0.062646f
c31 23 0 0.3608f
c32 19 0 1.02343f
c33 14 0 0.564503f
r34 122 124 10.3871 
r35 120 122 5.01286 
r36 113 141 6 
r37 132 111 6 
r38 109 111 6 
r39 109 113 4.46429 
r40 124 107 6 
r41 105 107 6 
r42 105 109 6.27286 
r43 100 145 0.0207123 
r44 100 144 0.0568712 
r45 98 100 6 
r46 98 103 0.0207123 
r47 97 141 11.4788 
r48 95 97 0.04509 
r49 95 96 7.86286 
r50 127 94 4.69857 
r51 92 94 6 
r52 144 92 0.285714 
r53 90 96 0.0446983 
r54 90 92 0.0457143 
r55 83 85 0.107847 
r56 83 127 6 
r57 81 85 0.0448046 
r58 81 82 1.56857 
r59 80 82 0.0448488 
r60 79 80 0.103226 
r61 76 120 6 
r62 74 76 2.17429 
r63 72 79 0.0448488 
r64 72 73 1.35143 
r65 116 70 7.37143 
r66 68 70 6 
r67 67 73 0.0446983 
r68 67 68 14.7657 
r69 64 116 6 
r70 62 74 0.0446983 
r71 62 64 0.3 
r72 60 132 0.549677 
r73 60 61 0.00955498 
r74 58 61 0.0329896 
r75 58 59 0.5 
r76 55 59 0.9375 
r77 86 42 6 
r78 86 39 2.06571 
r79 39 122 6 
r80 36 35 0.0789583 
r81 35 42 1.63 
r82 31 38 0.029971 
r83 30 55 0.0450043 
r84 30 31 0.441081 
r85 25 38 0.0122637 
r86 25 26 0.9375 
r87 23 38 0.029971 
r88 23 24 0.441081 
r89 18 24 0.0450043 
r90 18 19 0.9375 
r91 36 14 0.60125 
.ends

.subckt PM_PC3D01D%PAD 21 50 91 120 161 190 247 271 295 319 349 355 380 488 507
+ 514
c0 522 0 26.8791f
c1 515 0 84.0351f
c2 514 0 64.3341f
c3 511 0 159.215f
c4 506 0 1.02561f
c5 499 0 9.97339f
c6 494 0 12.958f
c7 485 0 0.118304f
c8 482 0 202.38f
c9 468 0 15.3329f
c10 450 0 3.86483f
c11 381 0 128.319f
c12 380 0 1.04909f
c13 355 0 13.2018f
c14 349 0 13.172f
c15 319 0 13.1699f
c16 295 0 13.1832f
c17 271 0 13.4186f
c18 247 0 13.1699f
c19 212 0 7.52869f
c20 190 0 2.9853f
c21 173 0 6.78371f
c22 161 0 2.98495f
c23 144 0 6.78371f
c24 120 0 2.9853f
c25 103 0 6.78371f
c26 91 0 2.9853f
c27 74 0 6.78371f
c28 50 0 2.98608f
c29 33 0 6.78371f
c30 21 0 2.9853f
c31 4 0 6.78371f
r32 522 523 0.118407 
r33 521 522 0.118407 
r34 520 521 0.056883 
r35 519 520 0.061524 
r36 518 519 0.118407 
r37 517 518 0.0830354 
r38 516 517 0.0353716 
r39 514 515 0.0124825 
r40 512 514 0.000593149 
r41 511 512 0.0669731 
r42 506 507 0.00916 
r43 499 517 0.0545455 
r44 494 520 0.015 
r45 485 488 0.00916 
r46 485 506 2 
r47 481 494 0.0264274 
r48 481 482 0.147774 
r49 475 476 0.00752787 
r50 474 475 0.021023 
r51 472 474 0.000537705 
r52 472 511 0.00162999 
r53 470 472 0.000537705 
r54 468 470 0.0285508 
r55 459 506 0.1388 
r56 458 459 0.132996 
r57 457 458 0.0171733 
r58 456 457 0.0171733 
r59 455 456 0.0171733 
r60 454 455 0.0171733 
r61 453 454 0.0171733 
r62 450 499 0.202116 
r63 482 383 0.0288462 
r64 381 453 0.00818451 
r65 381 383 0.00646891 
r66 450 380 0.0147368 
r67 344 349 0.0072093 
r68 453 344 0.0566038 
r69 342 355 0.0072093 
r70 458 342 0.0566038 
r71 315 319 0.0072093 
r72 457 315 0.0566038 
r73 291 295 0.0072093 
r74 456 291 0.0566038 
r75 267 271 0.0072093 
r76 455 267 0.0566038 
r77 243 247 0.0072093 
r78 454 243 0.0566038 
r79 223 226 0.0022831 
r80 476 223 0.0375475 
r81 223 512 0.00547945 
r82 474 222 0.00210084 
r83 220 222 0.000537705 
r84 470 220 0.00210084 
r85 222 218 0.0105115 
r86 475 218 0.00712251 
r87 214 226 0.0187738 
r88 218 214 0.00376393 
r89 476 214 0.00712251 
r90 212 220 0.0142754 
r91 468 212 0.00356125 
r92 515 197 0.345778 
r93 196 522 0.0220132 
r94 196 197 0.319822 
r95 190 177 0.00249413 
r96 197 177 0.0425532 
r97 173 190 0.00249413 
r98 197 173 0.0425532 
r99 515 168 0.345778 
r100 167 523 0.0220132 
r101 167 168 0.319822 
r102 161 148 0.00249413 
r103 168 148 0.0425532 
r104 144 161 0.00249413 
r105 168 144 0.0425532 
r106 515 127 0.345778 
r107 126 519 0.0220132 
r108 126 127 0.319822 
r109 120 107 0.00249413 
r110 127 107 0.0425532 
r111 103 120 0.00249413 
r112 127 103 0.0425532 
r113 515 98 0.345778 
r114 97 521 0.0220132 
r115 97 98 0.319822 
r116 91 78 0.00249413 
r117 98 78 0.0425532 
r118 74 91 0.00249413 
r119 98 74 0.0425532 
r120 515 57 0.345778 
r121 56 516 0.0220132 
r122 56 57 0.319822 
r123 50 37 0.00249413 
r124 57 37 0.0425532 
r125 33 50 0.00249413 
r126 57 33 0.0425532 
r127 515 28 0.345778 
r128 27 518 0.0220132 
r129 27 28 0.319822 
r130 21 8 0.00249413 
r131 28 8 0.0425532 
r132 4 21 0.00249413 
r133 28 4 0.0425532 
.ends
