* File: pv0i.dist.sp.pex
* Created: Sun Jul  4 13:14:33 2010
* Program "Calibre xRC"
* Version "v2008.4_19.14"
* Nominal Temperature: 27C
* Circuit Temperature: 27C
* 
.subckt PM_PV0I%U31_U18_r1 137 149 229 241 252 311 316 321 325 329 333 337 343
+ 462
c0 484 0 1.17467f
c1 462 0 0.282344f
c2 452 0 0.646099f
c3 445 0 0.565389f
c4 439 0 0.556821f
c5 432 0 0.556634f
c6 426 0 0.571404f
c7 412 0 12.2502f
c8 408 0 0.451974f
c9 391 0 1.35426f
c10 386 0 3.34069f
c11 384 0 2.81856f
c12 383 0 0.21211f
c13 379 0 8.31265f
c14 364 0 9.06142f
c15 359 0 0.392788f
c16 358 0 0.204299f
c17 357 0 5.09231f
c18 356 0 0.0489987f
c19 349 0 0.597907f
c20 348 0 0.170161f
c21 347 0 0.597907f
c22 346 0 0.170161f
c23 345 0 0.597907f
c24 344 0 0.170161f
c25 343 0 2.38613f
c26 337 0 2.33708f
c27 333 0 2.33708f
c28 329 0 2.33708f
c29 325 0 2.33708f
c30 321 0 2.33708f
c31 316 0 2.33708f
c32 311 0 2.3856f
c33 252 0 2.64527f
c34 241 0 2.33708f
c35 234 0 0.170161f
c36 229 0 2.33708f
c37 228 0 0.170161f
c38 226 0 0.427745f
c39 149 0 2.33708f
c40 142 0 0.170161f
c41 137 0 2.33708f
c42 136 0 0.170161f
c43 134 0 0.427745f
r44 483 484 0.209538 
r45 458 483 1.5 
r46 452 488 0.0992857 
r47 450 452 3 
r48 450 453 0.473659 
r49 449 450 0.230732 
r50 445 479 0.0875 
r51 443 445 3 
r52 443 449 0.301463 
r53 442 443 0.402927 
r54 439 475 0.09 
r55 437 439 3 
r56 437 442 0.316098 
r57 436 437 0.388293 
r58 432 471 0.09 
r59 430 432 3 
r60 430 436 0.309268 
r61 429 430 0.395122 
r62 424 426 3 
r63 424 429 0.296098 
r64 423 424 0.408293 
r65 419 423 0.70439 
r66 453 412 0.0721951 
r67 410 412 1.57059 
r68 419 408 1.57647 
r69 397 488 3 
r70 389 391 1.5 
r71 386 389 1.08889 
r72 386 484 3 
r73 393 384 0.0585121 
r74 383 397 0.0240342 
r75 383 384 1.01071 
r76 381 483 0.148 
r77 379 381 3 
r78 378 393 0.0200193 
r79 378 379 3.94562 
r80 376 479 3 
r81 372 475 3 
r82 372 376 0.657094 
r83 369 471 3 
r84 369 372 0.640684 
r85 426 367 0.09 
r86 365 367 3 
r87 365 369 0.636239 
r88 364 397 0.0215392 
r89 364 376 0.464274 
r90 363 391 0.380968 
r91 361 462 0.0251685 
r92 359 361 2 
r93 358 363 0.0454005 
r94 358 359 0.0892462 
r95 357 458 0.113058 
r96 356 458 0.567493 
r97 349 449 5.05882 
r98 348 449 5.05882 
r99 347 436 5.05882 
r100 346 436 5.05882 
r101 345 423 5.05882 
r102 344 423 5.05882 
r103 339 410 1.5 
r104 339 343 367.92 
r105 334 349 5.28991 
r106 334 337 367.92 
r107 330 348 5.28991 
r108 330 333 367.944 
r109 326 347 5.28991 
r110 326 329 367.944 
r111 322 346 5.28991 
r112 322 325 367.944 
r113 318 345 5.28991 
r114 318 321 367.944 
r115 313 344 5.28991 
r116 313 316 367.92 
r117 308 408 1.5 
r118 308 311 367.92 
r119 357 257 0.0954001 
r120 257 252 1.9113 
r121 251 356 0.0954001 
r122 251 252 1.9113 
r123 442 241 363.96 
r124 234 442 3.96 
r125 228 229 367.92 
r126 226 228 5.28991 
r127 225 234 5.28991 
r128 225 226 10.1176 
r129 429 149 363.96 
r130 142 429 3.96 
r131 136 137 367.92 
r132 134 136 5.28991 
r133 133 142 5.28991 
r134 133 134 10.1176 
.ends

.subckt PM_PV0I%VSS 395 614 1806 1809 1812 1815 1818 1821 1824 1850 1892 1936
+ 1959 1982 1987 1993 2005 2010 2037 2057 2081 2170 2174 2178 2182 2186 2190 2200
+ 2210 2212 2215 2231 2241 2253 2262
c0 2260 0 159.215f
c1 2253 0 26.8376f
c2 2239 0 5.73327f
c3 2231 0 1.24866f
c4 2220 0 9.99705f
c5 2215 0 0.301376f
c6 2200 0 0.145467f
c7 2198 0 1.65731f
c8 2190 0 9.86382f
c9 2186 0 9.71678f
c10 2182 0 9.71876f
c11 2178 0 9.7627f
c12 2174 0 9.71691f
c13 2170 0 9.76954f
c14 2061 0 1.19505f
c15 2049 0 12.2426f
c16 2042 0 135.142f
c17 2032 0 0.30047f
c18 2026 0 12.1471f
c19 2014 0 15.327f
c20 2005 0 4.47474f
c21 1993 0 57.1226f
c22 1984 0 3.92366f
c23 1978 0 0.833237f
c24 1977 0 0.340789f
c25 1973 0 12.7209f
c26 1972 0 24.5301f
c27 1971 0 62.4044f
c28 1953 0 12.4191f
c29 1949 0 1.27046f
c30 1942 0 12.3306f
c31 1930 0 12.3326f
c32 1921 0 12.3338f
c33 1901 0 109.805f
c34 1899 0 13.3663f
c35 1886 0 12.0777f
c36 1880 0 14.4897f
c37 1877 0 8.6316f
c38 1876 0 6.23072f
c39 1875 0 5.29528f
c40 1873 0 0.290506f
c41 1872 0 0.763221f
c42 1870 0 7.04805f
c43 1861 0 0.110631f
c44 1860 0 5.1531f
c45 1858 0 0.27249f
c46 1857 0 0.753216f
c47 1856 0 0.110631f
c48 1855 0 0.231199f
c49 1850 0 2.02256f
c50 1826 0 7.02665f
c51 1824 0 1.82245f
c52 1821 0 1.8569f
c53 1818 0 1.84807f
c54 1815 0 1.80593f
c55 1812 0 1.80593f
c56 1809 0 1.80593f
c57 1806 0 2.01523f
c58 1803 0 1.85181f
c59 1801 0 1.85063f
c60 1799 0 1.85063f
c61 1797 0 1.85063f
c62 1795 0 1.8846f
c63 1793 0 1.84519f
c64 1791 0 1.87187f
c65 1789 0 1.86162f
c66 1788 0 0.220143f
c67 1784 0 1.79996f
c68 1779 0 5.56442f
c69 1457 0 0.277941f
c70 1455 0 0.301775f
c71 1453 0 0.351026f
c72 1451 0 5.64165f
c73 1450 0 0.253923f
c74 1449 0 0.358819f
c75 1448 0 0.253874f
c76 1447 0 0.559698f
c77 1440 0 0.559573f
c78 1304 0 0.17268f
c79 1303 0 4.33416f
c80 1302 0 1.99821f
c81 1280 0 0.0538339f
c82 1279 0 0.106715f
c83 1278 0 0.0538339f
c84 1277 0 0.112079f
c85 1249 0 5.27035f
c86 1245 0 0.595941f
c87 1243 0 0.838116f
c88 1232 0 3.28332f
c89 1202 0 7.47861f
c90 1199 0 0.102637f
c91 1198 0 0.562762f
c92 1197 0 0.119767f
c93 1196 0 0.847868f
c94 1195 0 6.24446f
c95 683 0 1.22569f
c96 679 0 1.8344f
c97 663 0 3.27775f
c98 501 0 14.0017f
c99 431 0 14.0017f
c100 282 0 14.0017f
c101 212 0 14.0017f
c102 172 0 7.52869f
c103 126 0 14.0017f
c104 112 0 7.95692f
c105 56 0 7.65602f
r106 2261 2262 0.000593227 
r107 2260 2261 0.066982 
r108 2250 2251 0.0979462 
r109 2249 2250 0.0282353 
r110 2248 2249 0.117567 
r111 2247 2248 0.111107 
r112 2246 2247 0.0412363 
r113 2241 2244 0.00303091 
r114 2238 2239 0.0551111 
r115 2237 2238 0.0497778 
r116 2236 2237 0.0497778 
r117 2235 2236 0.0497778 
r118 2233 2235 0.0131556 
r119 2233 2247 0.0413793 
r120 2231 2233 0.00266667 
r121 2230 2231 0.0339556 
r122 2229 2230 0.0497778 
r123 2228 2229 0.0497778 
r124 2227 2228 0.0497778 
r125 2225 2227 0.0551111 
r126 2223 2251 0.142857 
r127 2220 2223 0.113659 
r128 2198 2200 0.30408 
r129 2198 2249 0.0416667 
r130 2152 2210 0.267 
r131 2146 2210 0.267 
r132 2141 2210 0.267 
r133 2135 2210 0.267 
r134 2130 2210 0.267 
r135 2210 2114 0.267 
r136 2112 2210 0.267 
r137 2111 2112 0.202 
r138 2210 2111 0.003 
r139 2106 2210 0.267 
r140 2105 2106 0.202 
r141 2210 2105 0.0031 
r142 2101 2210 0.267 
r143 2100 2101 0.2045 
r144 2210 2100 0.0005 
r145 2095 2210 0.267 
r146 2094 2095 0.2015 
r147 2210 2094 0.0036 
r148 2087 2210 0.004 
r149 2086 2087 0.201 
r150 2210 2086 0.267 
r151 2084 2210 0.267 
r152 2076 2244 0.142857 
r153 2073 2076 0.109268 
r154 2061 2063 0.0181818 
r155 2057 2059 0.1891 
r156 2052 2053 1.4503 
r157 2049 2052 0.813861 
r158 2049 2250 0.3 
r159 2044 2046 0.0288462 
r160 2042 2044 0.133065 
r161 2042 2248 0.0190476 
r162 2040 2061 0.00937584 
r163 2040 2042 0.014094 
r164 2036 2037 0.00425547 
r165 2158 2032 2 
r166 2030 2032 2 
r167 2029 2030 1.37301 
r168 2026 2029 0.830622 
r169 2026 2246 0.3 
r170 2021 2022 0.00752787 
r171 2020 2021 0.021023 
r172 2018 2020 0.000537705 
r173 2018 2260 0.00162999 
r174 2016 2018 0.000537705 
r175 2014 2016 0.0285508 
r176 2010 2012 0.1891 
r177 1991 1993 0.000506675 
r178 1990 1991 0.0834503 
r179 1987 1990 0.000704656 
r180 2215 1986 0.00209524 
r181 1985 1986 2 
r182 1982 1984 0.495685 
r183 1981 1982 0.0441065 
r184 1979 1981 0.00152091 
r185 1977 1985 0.0344193 
r186 1977 1978 0.344286 
r187 1976 2212 0.0012844 
r188 2210 1976 0.00477064 
r189 1974 1976 0.0555556 
r190 1973 1974 0.0119518 
r191 1972 2063 0.0689262 
r192 1972 1974 0.34641 
r193 1971 2262 0.129579 
r194 1971 1973 0.36241 
r195 2158 1969 3.64488 
r196 1962 2152 0.2 
r197 2210 1962 0.005 
r198 1960 1962 2 
r199 1972 1960 0.015615 
r200 1957 1959 0.130435 
r201 1957 1960 0.36877 
r202 1956 1957 0.013262 
r203 1953 2111 2 
r204 1953 1956 0.370053 
r205 1971 1953 0.0320856 
r206 1949 1978 0.0446983 
r207 1949 1984 0.766786 
r208 1948 2146 0.1915 
r209 2210 1948 0.0136 
r210 1946 1948 2 
r211 1972 1946 0.015615 
r212 1945 1946 0.382032 
r213 1942 2105 2 
r214 1942 1945 0.370053 
r215 1971 1942 0.0320856 
r216 1939 2141 0.1945 
r217 2210 1939 0.0105 
r218 1937 1939 2 
r219 1972 1937 0.015615 
r220 1934 1936 0.130435 
r221 1934 1937 0.36877 
r222 1933 1934 0.013262 
r223 1930 2100 2 
r224 1930 1933 0.370053 
r225 1971 1930 0.0320856 
r226 1927 2135 0.1935 
r227 2210 1927 0.0116 
r228 1925 1927 2 
r229 1972 1925 0.015615 
r230 1924 1925 0.382032 
r231 1921 2094 2 
r232 1921 1924 0.370053 
r233 1971 1921 0.0320856 
r234 1918 2190 0.0072093 
r235 1916 1918 0.0566038 
r236 1915 2186 0.0072093 
r237 1913 1915 0.0566038 
r238 1913 1916 0.0171733 
r239 1912 2182 0.0072093 
r240 1910 1912 0.0566038 
r241 1910 1913 0.0171733 
r242 1909 2178 0.0072093 
r243 1907 1909 0.0566038 
r244 1907 1910 0.0171733 
r245 1906 2174 0.0072093 
r246 1904 1906 0.0566038 
r247 1904 1907 0.0171733 
r248 1903 2170 0.0072093 
r249 1901 1903 0.0566038 
r250 1901 1904 0.0171733 
r251 1900 1979 0.02 
r252 1900 1916 0.0112123 
r253 1899 2046 0.00665815 
r254 1899 1901 0.00851567 
r255 1895 2130 0.202 
r256 2210 1895 0.003 
r257 1893 1895 2 
r258 1972 1893 0.015615 
r259 1890 1892 0.130435 
r260 1890 1893 0.36877 
r261 1889 1890 0.013262 
r262 1886 2087 2 
r263 1886 1889 0.370053 
r264 1971 1886 0.0320856 
r265 1883 2081 0.00127854 
r266 2210 1883 0.00474886 
r267 1881 1883 0.0571429 
r268 1972 1881 0.318053 
r269 1880 1881 0.0109735 
r270 1971 1880 0.332743 
r271 1877 2210 0.126 
r272 1876 2114 0.331 
r273 1874 2212 0.230275 
r274 1874 1875 0.0861375 
r275 1872 1873 0.0861375 
r276 1870 1871 0.089172 
r277 1869 1870 0.089172 
r278 1868 1869 0.089172 
r279 1867 2198 0.0488 
r280 1866 1868 0.089172 
r281 1866 1867 0.0204618 
r282 1865 1866 0.089172 
r283 1864 1865 0.089172 
r284 1863 1864 0.089172 
r285 1862 1863 0.089172 
r286 1861 2210 0.128 
r287 1859 2081 0.229041 
r288 1859 1860 0.0863581 
r289 1857 1858 0.0863581 
r290 1856 2084 0.333 
r291 1855 1877 0.0473573 
r292 1875 1855 0.132033 
r293 1852 1876 0.0473573 
r294 1852 1873 0.162276 
r295 1871 1850 0.35928 
r296 1870 1824 0.35928 
r297 1820 1869 0.0204618 
r298 1820 1821 0.35288 
r299 1817 1868 0.0204618 
r300 1817 1818 0.35288 
r301 1865 1815 0.35928 
r302 1864 1812 0.35928 
r303 1863 1809 0.35928 
r304 1862 1806 0.35928 
r305 1803 2238 0.02 
r306 1803 2231 0.30632 
r307 1801 2237 0.02 
r308 1801 2231 0.30632 
r309 1799 2236 0.02 
r310 1799 2231 0.30632 
r311 1797 2235 0.02 
r312 1797 2231 0.30632 
r313 1795 2230 0.02 
r314 1795 2231 0.30632 
r315 1793 2229 0.02 
r316 1793 2231 0.30632 
r317 1791 2228 0.02 
r318 1791 2231 0.30632 
r319 1789 2227 0.02 
r320 1789 2231 0.30632 
r321 1788 1861 0.0473573 
r322 1860 1788 0.132033 
r323 1785 1856 0.0473573 
r324 1785 1858 0.162276 
r325 1784 2225 0.02 
r326 1783 2223 0.349756 
r327 1782 2220 0.02 
r328 1781 1848 0.349159 
r329 1780 1826 0.346916 
r330 1779 1969 0.546341 
r331 1778 2158 0.522927 
r332 1777 2073 0.02 
r333 1776 2076 0.354146 
r334 1460 1463 1.676 
r335 1457 1969 2 
r336 2053 1457 2 
r337 1463 1455 1.5 
r338 2052 1455 1.5 
r339 1460 1453 1 
r340 2029 1453 1 
r341 1451 1463 0.459111 
r342 1783 1450 0.0420897 
r343 1449 1460 0.462222 
r344 1776 1448 0.0420897 
r345 1447 1451 0.0474127 
r346 1450 1447 0.120863 
r347 1826 1443 0.159252 
r348 1443 1848 0.159252 
r349 1782 1443 2.94 
r350 1777 1443 2.904 
r351 1440 1449 0.0474127 
r352 1448 1440 0.120863 
r353 1313 1784 0.5605 
r354 1303 1313 0.0446983 
r355 1303 1304 1.21 
r356 1302 2239 0.02 
r357 1301 1304 0.0446983 
r358 1301 1302 0.5605 
r359 1781 1280 0.00319614 
r360 1780 1279 0.00265108 
r361 1779 1279 0.0420172 
r362 1778 1277 0.0420172 
r363 1443 1276 0.106 
r364 1249 1443 0.106 
r365 1248 1276 0.347333 
r366 1247 1249 0.345333 
r367 1246 1280 0.0412274 
r368 1245 1248 0.0465329 
r369 1245 1246 0.578095 
r370 1244 1279 0.0420172 
r371 1243 1247 0.0467869 
r372 1243 1244 0.592195 
r373 1233 1278 0.0412274 
r374 1233 1443 0.253333 
r375 1232 1280 0.0412274 
r376 1232 1443 4.34857 
r377 1443 1229 0.161495 
r378 1202 1443 0.161495 
r379 1201 1278 0.00319614 
r380 1201 1229 0.346916 
r381 1200 1277 0.00265108 
r382 1200 1202 0.344673 
r383 1198 1278 0.0412274 
r384 1198 1199 0.578095 
r385 1196 1277 0.0420172 
r386 1196 1197 0.592195 
r387 1195 1199 0.0465329 
r388 1194 1197 0.0467869 
r389 1194 1195 3.32467 
r390 683 2057 0.0129 
r391 683 1991 0.131579 
r392 682 2253 0.00318245 
r393 2251 682 0.0129212 
r394 2059 682 0.428571 
r395 679 2010 0.0249 
r396 679 1990 0.131579 
r397 678 2246 0.101926 
r398 2244 678 0.00128415 
r399 2012 678 0.428571 
r400 669 672 0.0022831 
r401 2022 669 0.0375475 
r402 669 2261 0.00547945 
r403 666 2005 0.0317829 
r404 2036 666 0.0714286 
r405 663 2036 0.000827912 
r406 663 1981 0.12 
r407 2020 630 0.00210084 
r408 626 630 0.000537705 
r409 2016 626 0.00210084 
r410 1945 614 0.130435 
r411 1936 501 0.00313778 
r412 1933 501 0.0652174 
r413 614 487 0.0031351 
r414 1945 487 0.0652174 
r415 431 614 0.00314046 
r416 1945 431 0.0652174 
r417 417 1959 0.00313778 
r418 1956 417 0.0652174 
r419 1924 395 0.130435 
r420 1892 282 0.00313778 
r421 1889 282 0.0652174 
r422 395 268 0.0031351 
r423 1924 268 0.0652174 
r424 212 395 0.00314046 
r425 1924 212 0.0652174 
r426 198 1936 0.00313778 
r427 1933 198 0.0652174 
r428 630 184 0.0105115 
r429 2021 184 0.00712251 
r430 176 672 0.0187738 
r431 184 176 0.00376393 
r432 2022 176 0.00712251 
r433 172 626 0.0142754 
r434 2014 172 0.00356125 
r435 1959 126 0.00313778 
r436 1956 126 0.0652174 
r437 112 2210 0.0066055 
r438 1872 112 0.224404 
r439 1973 112 0.0652174 
r440 56 2210 0.00657534 
r441 1857 56 0.223196 
r442 1880 56 0.0652174 
r443 42 1892 0.00313778 
r444 1889 42 0.0652174 
.ends

.subckt PM_PV0I%noxref_3 8 15
c0 16 0 0.315221f
c1 14 0 0.787554f
c2 13 0 0.35392f
r3 14 16 0.020045 
r4 13 15 0.0300645 
r5 13 14 0.232258 
r6 16 8 0.0675676 
.ends

.subckt PM_PV0I%VDD 25 51 77 103 139 165 716 888 937 946 977 982 987 992 997
+ 1002 1007 1028 1041 1073 1075 1083
c0 1083 0 81.765f
c1 1072 0 12.5165f
c2 1066 0 10.8232f
c3 1062 0 10.9006f
c4 1058 0 10.903f
c5 1054 0 10.9028f
c6 1050 0 10.8865f
c7 1046 0 10.8202f
c8 1040 0 30.1439f
c9 1028 0 0.0044722f
c10 1016 0 6.3177f
c11 1010 0 15.367f
c12 951 0 5.7591f
c13 944 0 27.9631f
c14 940 0 1.56642f
c15 932 0 0.368894f
c16 930 0 0.425883f
c17 928 0 8.00872f
c18 927 0 24.7174f
c19 925 0 0.842075f
c20 923 0 4.70491f
c21 921 0 2.59869f
c22 904 0 4.01647f
c23 903 0 29.4221f
c24 888 0 1.77529f
c25 886 0 1.02554f
c26 884 0 15.7126f
c27 882 0 2.16269f
c28 877 0 2.35771f
c29 876 0 0.613581f
c30 873 0 5.16636f
c31 871 0 9.56184f
c32 869 0 2.06789f
c33 867 0 15.708f
c34 861 0 15.7133f
c35 858 0 15.7099f
c36 855 0 15.708f
c37 853 0 17.4574f
c38 851 0 2.33938f
c39 849 0 9.67529f
c40 844 0 2.04356f
c41 825 0 19.047f
c42 823 0 1.85017f
c43 716 0 2.83053f
c44 667 0 0.11068f
c45 666 0 4.83916f
c46 663 0 0.0825538f
c47 662 0 5.26359f
c48 185 0 2.2834f
c49 181 0 1.14823f
c50 165 0 3.80036f
c51 148 0 6.96554f
c52 139 0 3.80036f
c53 122 0 6.96571f
c54 103 0 3.80036f
c55 86 0 6.96021f
c56 77 0 3.80036f
c57 60 0 6.96555f
c58 51 0 3.79972f
c59 34 0 6.93563f
c60 25 0 3.79972f
c61 8 0 6.94084f
r62 1081 1083 0.00392659 
r63 1080 1081 0.00222795 
r64 1079 1080 0.07085 
r65 1078 1079 0.00363168 
r66 1075 1078 0.00307147 
r67 1072 1073 0.00251501 
r68 1040 1070 0.0509489 
r69 1028 1039 0.159252 
r70 1027 1028 0.11215 
r71 1026 1027 0.11215 
r72 1028 1026 0.159252 
r73 1016 1028 0.159252 
r74 1013 1070 0.125 
r75 1010 1013 0.00100463 
r76 1028 974 0.159252 
r77 1028 963 0.11215 
r78 951 1028 0.159252 
r79 1066 943 0.207556 
r80 942 943 0.133333 
r81 940 941 0.0701818 
r82 939 1072 0.6 
r83 939 940 0.0313405 
r84 937 939 0.0165374 
r85 936 1072 0.0178271 
r86 1070 936 0.0617047 
r87 934 936 0.15 
r88 934 937 0.0122952 
r89 930 932 0.00212788 
r90 930 1080 0.0657895 
r91 925 944 0.0443822 
r92 925 932 0.0487069 
r93 923 942 0.0403055 
r94 923 944 0.423687 
r95 941 921 0.721176 
r96 1062 919 0.207556 
r97 917 919 0.133333 
r98 1058 916 0.207556 
r99 914 916 0.133333 
r100 914 917 0.106893 
r101 1054 913 0.207556 
r102 911 913 0.133333 
r103 911 914 0.106893 
r104 1050 910 0.207556 
r105 908 910 0.133333 
r106 908 911 0.105989 
r107 1046 907 0.207556 
r108 905 907 0.133333 
r109 905 908 0.107232 
r110 904 905 0.000282486 
r111 903 942 0.00439468 
r112 903 917 0.101977 
r113 900 928 0.103136 
r114 900 901 0.75 
r115 898 904 0.045265 
r116 898 927 0.522134 
r117 1040 896 0.271585 
r118 894 896 0.3 
r119 894 897 0.00253153 
r120 891 1078 0.0231481 
r121 891 894 0.00692793 
r122 891 1079 0.0308642 
r123 888 891 0.0054955 
r124 887 928 0.0495568 
r125 887 897 0.0701712 
r126 886 927 0.0495568 
r127 886 888 0.0815315 
r128 997 884 0.552519 
r129 882 884 1 
r130 882 885 0.0607388 
r131 879 997 0.585802 
r132 877 879 1 
r133 877 880 0.0607968 
r134 946 876 0.170337 
r135 874 876 3 
r136 873 874 0.0629923 
r137 873 901 0.117451 
r138 1002 871 0.793846 
r139 869 871 1.5 
r140 885 869 0.194615 
r141 992 867 0.552519 
r142 865 867 1 
r143 1028 864 0.0361055 
r144 862 864 0.139535 
r145 862 865 0.0583988 
r146 987 861 0.552519 
r147 859 861 1 
r148 859 862 0.0261426 
r149 982 858 0.552519 
r150 856 858 1 
r151 856 859 0.0849491 
r152 977 855 0.552519 
r153 853 855 1 
r154 853 856 0.0841921 
r155 852 882 0.0220087 
r156 852 865 0.0625328 
r157 851 853 0.00704512 
r158 1007 849 0.793846 
r159 848 849 1.5 
r160 846 1002 0.842637 
r161 844 846 1.5 
r162 880 844 0.189811 
r163 841 1007 0.83956 
r164 840 873 0.0977991 
r165 840 841 1.5 
r166 839 992 0.585802 
r167 837 839 1 
r168 836 1028 0.103925 
r169 963 836 0.0553271 
r170 834 836 0.139535 
r171 834 837 0.0571917 
r172 833 987 0.585802 
r173 831 833 1 
r174 831 834 0.0256023 
r175 830 982 0.585802 
r176 828 830 1 
r177 828 831 0.0831932 
r178 827 977 0.585802 
r179 825 827 1 
r180 825 828 0.0824519 
r181 824 877 0.0220328 
r182 824 837 0.0607612 
r183 823 874 0.0136965 
r184 823 825 0.027712 
r185 1010 716 3.42631 
r186 685 1039 0.19514 
r187 684 1016 0.19514 
r188 667 1028 2.11181 
r189 666 685 0.0456322 
r190 666 1028 2.10217 
r191 663 1028 2.181 
r192 662 684 0.045921 
r193 662 1028 2.191 
r194 656 974 0.19514 
r195 656 667 0.0456322 
r196 655 951 0.19514 
r197 655 663 0.045921 
r198 194 934 0.00463308 
r199 930 194 0.00733639 
r200 194 1081 0.0242718 
r201 189 896 0.0397741 
r202 1041 189 0.00408743 
r203 897 189 0.6 
r204 921 185 0.75 
r205 848 181 0.0972918 
r206 851 181 0.0825185 
r207 181 185 0.284593 
r208 165 152 0.00249413 
r209 1058 152 0.0425532 
r210 148 165 0.00249413 
r211 1058 148 0.0425532 
r212 139 126 0.00249413 
r213 1062 126 0.0425532 
r214 122 139 0.00249413 
r215 1062 122 0.0425532 
r216 103 90 0.00249413 
r217 1050 90 0.0425532 
r218 86 103 0.00249413 
r219 1050 86 0.0425532 
r220 77 64 0.00249413 
r221 1054 64 0.0425532 
r222 60 77 0.00249413 
r223 1054 60 0.0425532 
r224 51 38 0.00249413 
r225 1066 38 0.0425532 
r226 34 51 0.00249413 
r227 1066 34 0.0425532 
r228 25 12 0.00249413 
r229 1046 12 0.0425532 
r230 8 25 0.00249413 
r231 1046 8 0.0425532 
.ends

.subckt PM_PV0I%U33_U31_r2 401 403 405 407 409 411 413 415 417 419 421 424 479
c0 516 0 0.336905f
c1 515 0 0.321185f
c2 514 0 0.321268f
c3 513 0 0.321268f
c4 512 0 0.321268f
c5 511 0 0.321268f
c6 510 0 0.321268f
c7 509 0 0.321268f
c8 508 0 0.321268f
c9 507 0 0.321103f
c10 504 0 8.22963f
c11 496 0 0.337547f
c12 495 0 0.324417f
c13 494 0 0.324493f
c14 493 0 0.324493f
c15 492 0 0.324493f
c16 491 0 0.324493f
c17 490 0 0.324493f
c18 489 0 0.324493f
c19 488 0 0.324493f
c20 487 0 0.324318f
c21 484 0 8.71753f
c22 477 0 8.7691f
c23 476 0 0.124729f
c24 473 0 1.03608f
c25 471 0 0.0884968f
c26 465 0 0.129107f
c27 464 0 0.0969864f
c28 461 0 1.10287f
c29 456 0 2.18148f
c30 453 0 0.239691f
c31 400 0 3.51133f
c32 388 0 0.111075f
c33 300 0 0.341106f
c34 297 0 0.344032f
c35 267 0 3.28301f
c36 265 0 0.0762281f
c37 234 0 3.28508f
c38 232 0 0.0762281f
c39 215 0 3.28502f
c40 213 0 0.0762281f
c41 182 0 3.28502f
c42 180 0 0.0762281f
c43 163 0 3.28502f
c44 161 0 0.0762281f
c45 130 0 3.28502f
c46 128 0 0.0762281f
c47 111 0 3.28502f
c48 109 0 0.0762281f
c49 78 0 3.28502f
c50 76 0 0.0762281f
c51 59 0 3.2851f
c52 57 0 0.0762505f
c53 26 0 3.28477f
c54 24 0 0.0762281f
c55 7 0 3.48566f
c56 5 0 0.0903591f
r57 515 516 0.238049 
r58 514 515 0.470244 
r59 513 514 0.238049 
r60 512 513 0.470244 
r61 511 512 0.238049 
r62 510 511 0.470244 
r63 509 510 0.238049 
r64 508 509 0.470244 
r65 507 508 0.238049 
r66 506 507 0.449756 
r67 504 506 0.0204878 
r68 496 497 0.209756 
r69 495 496 0.238049 
r70 494 495 0.470244 
r71 493 494 0.238049 
r72 492 493 0.470244 
r73 491 492 0.238049 
r74 490 491 0.470244 
r75 489 490 0.238049 
r76 488 489 0.470244 
r77 487 488 0.238049 
r78 486 487 0.449756 
r79 484 486 0.0204878 
r80 500 477 4.55556 
r81 476 477 3 
r82 473 506 3 
r83 471 476 0.0194085 
r84 471 473 0.74303 
r85 465 500 3 
r86 464 465 0.0484848 
r87 461 486 3 
r88 459 464 0.0446983 
r89 459 461 0.74303 
r90 456 497 3 
r91 479 453 0.00494845 
r92 451 453 3 
r93 451 456 0.429926 
r94 400 424 487.92 
r95 388 424 487.92 
r96 516 300 0.470244 
r97 497 297 0.260488 
r98 287 300 2.76471 
r99 400 287 5.28991 
r100 285 297 2.76471 
r101 388 285 5.28991 
r102 268 516 2.76471 
r103 267 421 487.92 
r104 267 268 5.28991 
r105 266 496 2.76471 
r106 265 421 487.92 
r107 265 266 5.28991 
r108 235 515 2.76471 
r109 234 419 487.92 
r110 234 235 5.28991 
r111 233 495 2.76471 
r112 232 419 487.92 
r113 232 233 5.28991 
r114 216 514 2.76471 
r115 215 417 487.92 
r116 215 216 5.28991 
r117 214 494 2.76471 
r118 213 417 487.92 
r119 213 214 5.28991 
r120 183 513 2.76471 
r121 182 415 487.92 
r122 182 183 5.28991 
r123 181 493 2.76471 
r124 180 415 487.92 
r125 180 181 5.28991 
r126 164 512 2.76471 
r127 163 413 487.92 
r128 163 164 5.28991 
r129 162 492 2.76471 
r130 161 413 487.92 
r131 161 162 5.28991 
r132 131 511 2.76471 
r133 130 411 487.92 
r134 130 131 5.28991 
r135 129 491 2.76471 
r136 128 411 487.92 
r137 128 129 5.28991 
r138 112 510 2.76471 
r139 111 409 487.92 
r140 111 112 5.28991 
r141 110 490 2.76471 
r142 109 409 487.92 
r143 109 110 5.28991 
r144 79 509 2.76471 
r145 78 407 487.92 
r146 78 79 5.28991 
r147 77 489 2.76471 
r148 76 407 487.92 
r149 76 77 5.28991 
r150 60 508 2.76471 
r151 59 405 487.92 
r152 59 60 5.28991 
r153 58 488 2.76471 
r154 57 405 487.92 
r155 57 58 5.28991 
r156 27 507 2.76471 
r157 26 403 487.92 
r158 26 27 5.28991 
r159 25 487 2.76471 
r160 24 403 487.92 
r161 24 25 5.28991 
r162 8 504 2.76471 
r163 7 401 487.92 
r164 7 8 5.28991 
r165 6 484 2.76471 
r166 5 401 487.92 
r167 5 6 5.28991 
.ends

.subckt PM_PV0I%noxref_6 8 15
c0 19 0 0.260138f
c1 14 0 0.580807f
c2 13 0 0.283904f
r3 14 19 0.02 
r4 13 15 0.0300645 
r5 13 14 0.232258 
r6 8 19 0.0116854 
.ends

.subckt PM_PV0I%VDDO 638 643 646 650 653 658 662 666 671 689 694 699 724 731
c0 731 0 51.2617f
c1 721 0 1.23079f
c2 717 0 1.24572f
c3 715 0 0.409769f
c4 713 0 1.26302f
c5 711 0 0.408417f
c6 709 0 1.14236f
c7 704 0 0.6661f
c8 698 0 6.85781f
c9 689 0 54.104f
c10 685 0 11.078f
c11 679 0 16.7606f
c12 671 0 72.833f
c13 658 0 6.0802f
c14 650 0 2.62398f
c15 643 0 21.7139f
c16 634 0 1.19447f
c17 612 0 0.243282f
c18 611 0 0.139646f
c19 610 0 1.05568f
c20 609 0 0.131696f
c21 600 0 0.408705f
c22 596 0 0.40993f
c23 543 0 2.54234f
c24 542 0 9.7805f
c25 419 0 0.611421f
c26 407 0 0.640427f
c27 404 0 0.411217f
c28 402 0 0.423779f
c29 400 0 0.423946f
c30 398 0 0.423408f
c31 17 0 0.123185f
c32 16 0 5.41365f
c33 7 0 0.12079f
c34 6 0 5.39041f
r35 730 731 0.00347712 
r36 729 730 0.47695 
r37 728 729 0.0601307 
r38 727 728 0.0210806 
r39 724 727 0.00480174 
r40 706 713 0.0370869 
r41 706 709 0.0425106 
r42 706 722 0.0151864 
r43 706 721 0.0427818 
r44 706 718 0.0206102 
r45 706 717 0.0373581 
r46 698 701 0.000218778 
r47 698 700 0.154512 
r48 698 699 0.02 
r49 694 696 0.1811 
r50 688 689 0.130751 
r51 687 701 0.02 
r52 687 688 0.0868882 
r53 684 685 0.586039 
r54 683 684 0.592 
r55 682 683 0.598588 
r56 681 704 0.0125197 
r57 681 682 0.480941 
r58 700 679 0.563758 
r59 679 729 0.25 
r60 676 704 0.0296994 
r61 676 679 3.26443 
r62 666 669 0.0110207 
r63 662 664 0.1811 
r64 656 658 0.0542058 
r65 653 656 0.0536763 
r66 696 642 0.5 
r67 642 643 0.00284461 
r68 706 636 0.00461017 
r69 634 636 2 
r70 622 715 0.0235276 
r71 706 622 0.0208814 
r72 617 711 0.0235276 
r73 706 617 0.0154576 
r74 611 636 0.0229424 
r75 611 612 0.048314 
r76 609 706 0.0183322 
r77 609 610 0.048314 
r78 601 706 0.164 
r79 722 600 0.0235276 
r80 600 601 0.1688 
r81 721 599 0.1628 
r82 706 599 0.16408 
r83 597 706 0.16392 
r84 718 596 0.0235276 
r85 596 597 0.1608 
r86 717 594 0.1708 
r87 706 594 0.164 
r88 591 706 0.164 
r89 715 591 0.1604 
r90 713 588 0.1712 
r91 706 588 0.16408 
r92 586 706 0.16392 
r93 711 586 0.1684 
r94 709 583 0.1632 
r95 706 583 0.164 
r96 612 580 0.114 
r97 706 580 0.164 
r98 610 577 0.1276 
r99 706 577 0.164 
r100 543 706 0.2472 
r101 542 706 0.2472 
r102 541 706 0.2488 
r103 540 706 0.2488 
r104 423 728 0.02 
r105 423 424 0.758885 
r106 419 694 0.1699 
r107 419 730 1.5 
r108 417 671 0.108412 
r109 669 417 0.0963319 
r110 417 656 0.00150602 
r111 424 416 0.510769 
r112 669 416 0.2 
r113 414 650 0.0653756 
r114 646 414 0.0655388 
r115 688 414 0.00181159 
r116 701 411 0.0276463 
r117 411 424 0.2 
r118 410 642 0.468512 
r119 638 410 0.00395612 
r120 664 410 0.5 
r121 407 662 0.1699 
r122 407 727 1.5 
r123 634 406 0.0294257 
r124 704 406 1.2 
r125 404 617 1.5 
r126 682 404 1.5 
r127 402 622 1.5 
r128 683 402 1.5 
r129 400 718 1.5 
r130 684 400 1.5 
r131 398 722 1.5 
r132 685 398 1.5 
r133 543 17 0.0447844 
r134 17 706 1.4363 
r135 16 542 0.0447844 
r136 16 706 1.40926 
r137 541 7 0.0447844 
r138 7 706 1.4363 
r139 6 540 0.0447844 
r140 6 706 1.40926 
.ends

.subckt PM_PV0I%VSSO 219 222 225 228 231 234 237 240 268 280 283 287 290 296
+ 302 305 309 312 316 325
c0 331 0 7.15073f
c1 325 0 1.24866f
c2 316 0 1.92885f
c3 310 0 1.2881f
c4 309 0 92.7774f
c5 303 0 1.10349f
c6 296 0 32.0806f
c7 287 0 25.4689f
c8 280 0 38.9785f
c9 266 0 6.85849f
c10 256 0 1.78959f
c11 254 0 1.80537f
c12 252 0 1.78245f
c13 250 0 1.82148f
c14 248 0 1.78702f
c15 246 0 1.78525f
c16 244 0 1.78525f
c17 242 0 1.78644f
c18 240 0 1.94986f
c19 237 0 1.93006f
c20 234 0 1.93006f
c21 231 0 1.93006f
c22 228 0 1.98021f
c23 225 0 1.98129f
c24 222 0 1.94333f
c25 219 0 1.95268f
c26 217 0 2.04421f
c27 216 0 1.89141f
c28 92 0 0.295655f
c29 91 0 5.70599f
c30 9 0 7.06875f
c31 7 0 1.35485f
r32 330 331 0.0551111 
r33 329 330 0.0497778 
r34 328 329 0.0497778 
r35 327 328 0.0497778 
r36 324 325 0.0158222 
r37 323 324 0.0497778 
r38 322 323 0.0497778 
r39 321 322 0.0497778 
r40 319 321 0.0551111 
r41 310 312 0.4449 
r42 303 305 0.4449 
r43 299 302 0.0304129 
r44 294 296 0.00199444 
r45 293 294 0.35605 
r46 290 293 0.00306111 
r47 278 327 0.0311111 
r48 325 278 0.00284444 
r49 276 278 0.0413793 
r50 316 275 0.29128 
r51 273 275 0.04 
r52 273 276 0.310588 
r53 272 273 0.169519 
r54 266 267 0.089172 
r55 265 266 0.089172 
r56 264 265 0.089172 
r57 263 275 0.0616 
r58 262 264 0.089172 
r59 262 263 0.0204618 
r60 261 262 0.089172 
r61 260 261 0.089172 
r62 259 260 0.089172 
r63 258 259 0.089172 
r64 256 330 0.02 
r65 256 325 0.30632 
r66 254 329 0.02 
r67 254 325 0.30632 
r68 252 328 0.02 
r69 252 325 0.30632 
r70 250 327 0.02 
r71 250 325 0.30632 
r72 248 324 0.02 
r73 248 325 0.30632 
r74 246 323 0.02 
r75 246 325 0.30632 
r76 244 322 0.02 
r77 244 325 0.30632 
r78 242 321 0.02 
r79 242 325 0.30632 
r80 267 240 0.35928 
r81 266 237 0.35928 
r82 265 234 0.35928 
r83 264 231 0.35928 
r84 227 261 0.0204618 
r85 227 228 0.35288 
r86 224 260 0.0204618 
r87 224 225 0.35288 
r88 259 222 0.35928 
r89 258 219 0.35928 
r90 217 331 0.02 
r91 216 319 0.02 
r92 101 217 0.5605 
r93 91 101 0.0446983 
r94 91 92 1.21 
r95 89 92 0.0446983 
r96 89 216 0.5605 
r97 312 21 0.2101 
r98 21 294 0.357143 
r99 20 280 0.00383957 
r100 276 20 0.190588 
r101 310 20 1 
r102 16 287 0.0418839 
r103 283 16 0.0414748 
r104 14 16 0.00132837 
r105 299 14 0.0926561 
r106 12 309 0.0383414 
r107 12 14 0.098829 
r108 9 272 0.666667 
r109 7 9 2.0883 
r110 305 5 0.1981 
r111 5 293 0.357143 
r112 4 272 0.0147487 
r113 268 4 0.00589305 
r114 303 4 1 
r115 2 7 0.0661809 
r116 1 302 0.0768886 
r117 1 2 0.134899 
.ends

