* File: pc3d31u.dist.sp.pex
* Created: Sun Jul  4 12:35:36 2010
* Program "Calibre xRC"
* Version "v2008.4_19.14"
* Nominal Temperature: 27C
* Circuit Temperature: 27C
* 
.subckt PM_PC3D31U%U14_padr 12 72 84 171 173 175 177 187 220
c0 293 0 16.0191f
c1 288 0 9.32193f
c2 279 0 15.772f
c3 271 0 5.32861f
c4 267 0 5.64073f
c5 265 0 0.501133f
c6 263 0 0.0674659f
c7 262 0 0.207306f
c8 261 0 0.394066f
c9 257 0 0.100871f
c10 256 0 0.0294927f
c11 253 0 1.75978f
c12 243 0 2.33938f
c13 235 0 1.05676f
c14 229 0 0.588664f
c15 225 0 2.47225f
c16 224 0 0.253658f
c17 221 0 0.703354f
c18 220 0 0.854032f
c19 187 0 1.32606f
c20 185 0 15.994f
c21 177 0 0.512788f
c22 175 0 0.879496f
c23 173 0 0.731856f
c24 171 0 0.810184f
c25 140 0 0.113509f
c26 136 0 0.218814f
c27 133 0 0.506462f
c28 128 0 0.416534f
c29 125 0 0.435871f
c30 122 0 0.234056f
c31 121 0 0.0423217f
c32 120 0 0.0209619f
c33 116 0 1.03641f
c34 114 0 0.0280501f
c35 113 0 0.0956877f
c36 112 0 0.415161f
c37 108 0 0.119966f
c38 106 0 0.88436f
c39 102 0 0.163762f
c40 101 0 0.0524723f
c41 100 0 0.0746534f
c42 98 0 0.0820949f
c43 96 0 0.0279128f
c44 95 0 0.118787f
c45 94 0 0.0386133f
c46 93 0 0.13835f
c47 90 0 0.245636f
c48 88 0 0.0328838f
c49 87 0 0.144749f
c50 84 0 1.40175f
c51 81 0 0.0701503f
c52 80 0 0.779181f
c53 79 0 0.0424881f
c54 78 0 0.545832f
c55 77 0 0.0421449f
c56 76 0 0.387555f
c57 72 0 1.81719f
c58 34 0 0.0820439f
c59 32 0 0.123577f
c60 29 0 0.0906731f
c61 19 0 0.104376f
c62 18 0 0.0302578f
c63 17 0 0.0479459f
c64 16 0 0.0834252f
c65 12 0 1.07645f
r66 293 281 0.172857 
r67 279 281 6 
r68 278 279 8.59067 
r69 271 293 2 
r70 269 271 10.3129 
r71 288 267 0.185079 
r72 265 267 1.2 
r73 264 265 0.482857 
r74 262 264 0.0446983 
r75 262 263 0.125714 
r76 261 263 0.0446983 
r77 256 257 0.0636735 
r78 252 256 0.0473078 
r79 240 241 6 
r80 237 278 2.82667 
r81 275 237 3.56 
r82 235 237 6 
r83 235 240 0.8816 
r84 224 241 0.0840267 
r85 222 224 0.0448127 
r86 222 225 2.62845 
r87 221 288 0.18836 
r88 225 220 0.0773806 
r89 184 185 1.136 
r90 166 175 95.1667 
r91 149 171 95.6667 
r92 257 142 6 
r93 253 140 6 
r94 252 137 0.7375 
r95 253 137 2.8475 
r96 137 185 6 
r97 250 136 6 
r98 133 250 1.25 
r99 133 278 6 
r100 187 132 1.5325 
r101 243 132 6 
r102 129 246 0.7875 
r103 243 129 2.88 
r104 129 184 6 
r105 246 128 6 
r106 125 233 0.482667 
r107 125 275 6 
r108 124 184 5.42667 
r109 233 124 6 
r110 122 142 0.0650406 
r111 121 140 0.0305882 
r112 119 136 0.36 
r113 118 128 0.65375 
r114 117 187 1.3775 
r115 115 122 0.0502006 
r116 115 116 2.69091 
r117 113 116 0.0446983 
r118 113 114 0.0824242 
r119 111 112 2.316 
r120 108 166 1.6393 
r121 107 114 0.0446983 
r122 107 108 0.0981818 
r123 105 106 1.84267 
r124 101 102 0.156364 
r125 100 120 0.0383557 
r126 99 101 0.0486538 
r127 99 100 0.196923 
r128 98 121 0.0450655 
r129 97 120 0.0383557 
r130 97 98 0.206897 
r131 95 112 0.0446983 
r132 95 96 0.266667 
r133 94 119 0.0447588 
r134 93 111 0.0446983 
r135 93 94 0.266667 
r136 90 149 1.42502 
r137 89 96 0.0447588 
r138 89 90 0.36125 
r139 87 120 0.00526525 
r140 87 88 0.33 
r141 83 88 0.0446983 
r142 83 84 1.2575 
r143 82 84 1.3775 
r144 80 106 0.0446983 
r145 80 81 1.024 
r146 79 118 0.0447588 
r147 78 105 0.0446983 
r148 78 79 1.08267 
r149 77 117 0.0447588 
r150 76 82 0.0447588 
r151 76 77 0.544 
r152 71 81 0.0447588 
r153 71 72 2.20875 
r154 34 102 6.08333 
r155 33 34 1.52425 
r156 32 177 51.6667 
r157 32 33 6.00811 
r158 30 102 6.41667 
r159 29 30 1.5 
r160 28 173 80.8333 
r161 28 29 6.1393 
r162 229 21 0.30381 
r163 19 21 3 
r164 18 19 0.109474 
r165 269 17 0.0446983 
r166 18 16 0.0456991 
r167 16 17 0.147143 
r168 13 261 0.407619 
r169 13 229 0.0446983 
r170 221 12 0.0147368 
.ends

.subckt PM_PC3D31U%VDDO 824 883 892 903 914 925 936 947 958 1197 1206 1209 1220
+ 1308 1317 1319 1594 1598 1601 1606 1613 1620 1627 1635 1646 1658 1668 1672 1678
+ 1684 1690 1731 1746 1749 1754
c0 1754 0 20.331f
c1 1746 0 48.4419f
c2 1727 0 3.07874f
c3 1696 0 9.57209f
c4 1690 0 1.75851f
c5 1684 0 2.26261f
c6 1678 0 1.05279f
c7 1672 0 0.964394f
c8 1665 0 0.482945f
c9 1658 0 2.02376f
c10 1655 0 3.35178f
c11 1643 0 0.505312f
c12 1639 0 30.2873f
c13 1638 0 1.97484f
c14 1635 0 62.8661f
c15 1619 0 50.9197f
c16 1610 0 0.696813f
c17 1608 0 1.24538f
c18 1606 0 3.00652f
c19 1598 0 2.49843f
c20 1592 0 0.127757f
c21 1587 0 0.0724239f
c22 1585 0 1.09396f
c23 1578 0 0.330853f
c24 1574 0 0.15028f
c25 1568 0 0.229821f
c26 1564 0 0.661063f
c27 1560 0 0.347854f
c28 1556 0 0.206527f
c29 1552 0 0.414902f
c30 1547 0 1.52326f
c31 1545 0 0.988028f
c32 1543 0 0.0714314f
c33 1542 0 0.111846f
c34 1508 0 9.76182f
c35 1339 0 1.67177f
c36 1328 0 11.6791f
c37 1319 0 0.554567f
c38 1317 0 0.436695f
c39 1308 0 0.0819925f
c40 1271 0 0.119988f
c41 1267 0 1.90285f
c42 1263 0 0.453271f
c43 1260 0 0.403013f
c44 1259 0 0.114225f
c45 1257 0 0.00686422f
c46 1255 0 8.25864f
c47 1254 0 9.1942f
c48 1252 0 0.821464f
c49 1238 0 0.0962101f
c50 1229 0 0.0604021f
c51 1228 0 4.45457f
c52 1227 0 2.3459f
c53 1225 0 0.034797f
c54 1224 0 0.205308f
c55 1220 0 0.308482f
c56 1209 0 0.329267f
c57 1206 0 0.667752f
c58 1204 0 0.0301061f
c59 1203 0 0.86994f
c60 1197 0 1.25664f
c61 1120 0 3.63084f
c62 1070 0 1.29937f
c63 1066 0 0.615713f
c64 1062 0 8.82846f
c65 1060 0 6.7868f
c66 1058 0 0.588747f
c67 1052 0 0.170971f
c68 1049 0 0.0533066f
c69 1047 0 0.0989764f
c70 965 0 7.33964f
c71 962 0 11.7156f
c72 951 0 19.4869f
c73 940 0 19.4869f
c74 929 0 19.5155f
c75 918 0 19.4869f
c76 907 0 19.4869f
c77 896 0 11.8383f
c78 883 0 7.73649f
c79 849 0 0.210878f
c80 823 0 5.39118f
c81 812 0 0.0533066f
c82 801 0 0.12462f
c83 800 0 5.89132f
c84 797 0 0.104443f
c85 796 0 6.15801f
c86 17 0 0.486838f
c87 16 0 6.72918f
c88 7 0 0.152029f
c89 6 0 6.75738f
r90 1749 1752 0.00394881 
r91 1743 1744 0.192505 
r92 1742 1743 0.0205664 
r93 1741 1742 0.12427 
r94 1740 1741 0.0141176 
r95 1739 1740 0.0204357 
r96 1738 1739 0.0326362 
r97 1737 1738 0.0553377 
r98 1736 1737 0.0270153 
r99 1735 1736 0.0699782 
r100 1729 1746 0.00304139 
r101 1744 1729 0.00174292 
r102 1727 1729 0.461538 
r103 1693 1743 0.545455 
r104 1690 1693 1.185 
r105 1687 1742 0.545455 
r106 1684 1687 1.45 
r107 1681 1741 0.5 
r108 1678 1681 0.4025 
r109 1675 1740 0.5 
r110 1672 1675 0.28 
r111 1665 1668 0.0002 
r112 1665 1738 0.666667 
r113 1661 1736 0.5 
r114 1658 1661 1.455 
r115 1657 1735 0.00174292 
r116 1731 1657 0.00305011 
r117 1655 1657 0.461538 
r118 1650 1754 0.0039415 
r119 1752 1650 0.467422 
r120 1648 1650 0.5 
r121 1646 1648 0.181 
r122 1643 1646 0.17 
r123 1643 1744 1.5 
r124 1640 1641 0.5433 
r125 1639 1640 0.2247 
r126 1638 1641 0.099 
r127 1634 1635 0.0136564 
r128 1633 1634 0.0314855 
r129 1630 1631 0.0334274 
r130 1627 1630 0.01361 
r131 1616 1752 0.5 
r132 1613 1616 0.181 
r133 1610 1613 0.17 
r134 1610 1735 1.5 
r135 1608 1639 0.5293 
r136 1604 1606 0.0526456 
r137 1601 1604 0.0552365 
r138 1590 1592 0.12 
r139 1580 1583 3 
r140 1696 1580 0.0677429 
r141 1578 1580 3 
r142 1696 1570 0.1116 
r143 1724 1570 0.0028 
r144 1568 1570 6 
r145 1549 1592 0.02 
r146 1546 1590 0.02 
r147 1546 1547 2.92286 
r148 1587 1544 0.0456991 
r149 1544 1545 2.06857 
r150 1542 1545 0.0446983 
r151 1542 1543 0.0971429 
r152 1540 1543 0.0446983 
r153 1540 1585 1.64571 
r154 1508 1724 0.2648 
r155 1507 1724 0.2664 
r156 1506 1724 0.2664 
r157 1332 1560 1 
r158 1328 1564 1.2 
r159 1325 1328 1.58968 
r160 1314 1574 3 
r161 1311 1314 0.2885 
r162 1311 1556 2 
r163 1308 1311 2.755 
r164 1307 1308 1.8985 
r165 1306 1307 0.425 
r166 1568 1284 0.000149533 
r167 1608 1283 0.0555566 
r168 1283 1284 6 
r169 1282 1583 0.0444444 
r170 1578 1282 7.40741e-05 
r171 1608 1281 0.0279474 
r172 1281 1282 1.5 
r173 1556 1280 0.000233918 
r174 1640 1280 2 
r175 1564 1278 0.000114123 
r176 1639 1278 1.2 
r177 1560 1276 0.000100503 
r178 1641 1276 1 
r179 1574 1274 0.000299625 
r180 1640 1274 3 
r181 1587 1271 6 
r182 1585 1268 0.0557895 
r183 1268 1306 3 
r184 1552 1267 6 
r185 1552 1264 0.6875 
r186 1264 1325 6 
r187 1319 1263 0.289474 
r188 1739 1263 0.5 
r189 1549 1260 0.787143 
r190 1260 1307 6 
r191 1259 1339 0.0561431 
r192 1547 1259 6 
r193 1257 1317 0.0484211 
r194 1737 1257 2 
r195 1255 1332 0.219259 
r196 1254 1314 0.0845 
r197 1250 1267 3.25125 
r198 1249 1252 0.111392 
r199 1249 1250 0.0200506 
r200 1238 1306 0.8885 
r201 1237 1727 0.526 
r202 1237 1255 0.0447005 
r203 1236 1727 2.122 
r204 1236 1254 0.0446983 
r205 1234 1252 1.0625 
r206 1228 1234 0.0446983 
r207 1228 1229 5.445 
r208 1226 1229 0.0450317 
r209 1226 1227 4.61527 
r210 1224 1227 0.0450317 
r211 1224 1225 0.35875 
r212 1219 1225 0.0446983 
r213 1219 1220 0.13875 
r214 1206 1209 0.81913 
r215 1205 1209 0.309565 
r216 1203 1205 0.0446983 
r217 1203 1204 2.21913 
r218 1201 1204 0.0447246 
r219 1201 1339 4.4 
r220 1196 1271 0.0422277 
r221 1196 1197 1.5875 
r222 1192 1655 2.122 
r223 1192 1238 0.0446983 
r224 1122 1123 0.490516 
r225 1121 1122 0.232864 
r226 1120 1121 0.279437 
r227 1111 1112 0.279231 
r228 1110 1111 0.2665 
r229 1101 1102 0.273962 
r230 1100 1101 0.261472 
r231 1087 1088 0.278131 
r232 1086 1087 0.185047 
r233 1083 1633 0.0601494 
r234 1631 1083 0.0634357 
r235 1083 1604 0.00227273 
r236 1630 1082 3 
r237 1630 1080 0.666667 
r238 1631 1078 1.5 
r239 1633 1076 1.5 
r240 1634 1074 3 
r241 1634 1072 3 
r242 1634 1070 2 
r243 1068 1598 0.0620926 
r244 1594 1068 0.0688218 
r245 1625 1068 0.0025 
r246 1062 1100 3.77358e-05 
r247 1060 1110 3.84615e-05 
r248 1052 1120 0.117559 
r249 1051 1052 0.119812 
r250 1051 1058 0.181784 
r251 1050 1072 0.0101408 
r252 1049 1070 0.122066 
r253 1047 1048 0.08 
r254 1047 1066 0.274084 
r255 976 978 0.0829907 
r256 976 1123 0.1 
r257 962 1076 1.5 
r258 958 962 0.793846 
r259 955 958 0.842637 
r260 955 1078 1.5 
r261 947 951 0.55145 
r262 944 947 0.585344 
r263 936 940 0.55145 
r264 933 936 0.585344 
r265 925 929 0.55145 
r266 922 925 0.585344 
r267 918 1112 1.5 
r268 914 918 0.55145 
r269 911 914 0.585344 
r270 911 1102 1.5 
r271 907 1111 1.5 
r272 903 907 0.55145 
r273 900 903 0.585344 
r274 900 1101 1.5 
r275 896 1110 1.5 
r276 892 896 0.793846 
r277 889 892 0.842637 
r278 889 1100 1.5 
r279 885 1092 0.2 
r280 965 883 0.159252 
r281 978 883 0.159252 
r282 883 985 0.159252 
r283 883 976 0.0291589 
r284 883 885 0.0391734 
r285 866 883 0.0397569 
r286 866 1086 0.2 
r287 855 1080 0.231776 
r288 1092 855 0.232523 
r289 1630 855 1 
r290 944 853 1.5 
r291 853 1078 0.261509 
r292 1631 853 1.5 
r293 951 851 1.5 
r294 851 1076 0.266538 
r295 1633 851 1.5 
r296 1634 849 1 
r297 847 1092 0.231028 
r298 1082 847 0.278131 
r299 1630 847 0.6 
r300 933 845 1.5 
r301 845 853 0.273962 
r302 1631 845 1.5 
r303 940 843 1.5 
r304 843 851 0.279231 
r305 1633 843 1.5 
r306 841 1072 0.279437 
r307 1074 841 0.279437 
r308 1634 841 0.6 
r309 839 1082 0.139065 
r310 1088 839 0.683365 
r311 1630 839 2 
r312 922 837 1.5 
r313 837 845 0.273962 
r314 1102 837 0.273962 
r315 1631 837 1.5 
r316 929 835 1.5 
r317 835 843 0.279231 
r318 1112 835 0.279231 
r319 1633 835 1.5 
r320 833 1074 0.232864 
r321 1123 833 0.139343 
r322 1634 833 0.857143 
r323 830 1087 2 
r324 830 1066 0.666667 
r325 1620 830 0.0165962 
r326 830 1088 0.666667 
r327 828 1101 1.5 
r328 828 1062 1.5 
r329 828 1625 0.0805639 
r330 830 828 0.0404834 
r331 828 1102 1.5 
r332 826 1111 1.5 
r333 826 1060 1.5 
r334 1619 826 0.0330312 
r335 1625 826 0.0694058 
r336 826 1112 1.5 
r337 824 1121 3 
r338 824 1120 0.666667 
r339 824 1058 0.6 
r340 824 1638 0.0532592 
r341 824 1619 0.0241042 
r342 824 1122 0.666667 
r343 823 1086 0.0930841 
r344 1048 823 0.0616822 
r345 830 823 0.666667 
r346 814 849 0.0239252 
r347 814 1049 0.04 
r348 812 849 0.135327 
r349 812 1050 0.04 
r350 807 985 0.73271 
r351 806 965 0.737944 
r352 805 883 0.73271 
r353 804 883 0.737944 
r354 801 805 0.0451326 
r355 801 883 2.504 
r356 800 807 0.0451326 
r357 800 883 2.44889 
r358 797 804 0.045921 
r359 797 883 2.687 
r360 796 806 0.045921 
r361 796 883 2.885 
r362 17 1724 1.51848 
r363 16 1508 0.0447329 
r364 16 1724 1.51162 
r365 15 1580 0.0737243 
r366 15 17 0.0447329 
r367 1507 7 0.0447329 
r368 7 1724 1.51848 
r369 6 1506 0.0447329 
r370 6 1724 1.51162 
.ends

.subckt PM_PC3D31U%net_m1_VSSO_res 25 33
c0 38 0 0.696744f
c1 28 0 0.884807f
c2 25 0 1.14328f
c3 19 0 0.0642966f
c4 18 0 0.321285f
c5 17 0 0.0527767f
c6 16 0 1.55913f
c7 15 0 0.864148f
r8 28 38 2.46349 
r9 28 33 1.8 
r10 24 25 0.987826 
r11 20 38 0.596923 
r12 18 20 0.0472932 
r13 18 19 0.351765 
r14 16 24 0.0468981 
r15 16 17 2.02471 
r16 15 19 0.0446983 
r17 14 17 0.0446983 
r18 14 15 1.4 
.ends

.subckt PM_PC3D31U%VSS 818 888 910 953 962 974 977 983
c0 983 0 88.6905f
c1 974 0 49.4324f
c2 961 0 55.0131f
c3 959 0 2.3768f
c4 953 0 4.46304e-19
c5 950 0 1.09195f
c6 927 0 2.39041f
c7 918 0 12.4838f
c8 917 0 1.77327f
c9 907 0 1.88751f
c10 899 0 14.898f
c11 885 0 1.45648f
c12 882 0 2.50412f
c13 846 0 25.3375f
c14 833 0 0.0691108f
c15 832 0 0.0657389f
c16 831 0 8.02954f
c17 830 0 0.745402f
c18 829 0 0.269279f
c19 826 0 0.0372194f
c20 818 0 2.4661f
c21 816 0 6.79629f
c22 815 0 0.218207f
c23 813 0 0.69473f
c24 806 0 8.5982f
c25 804 0 0.255493f
c26 803 0 0.0856199f
c27 802 0 1.18476f
c28 696 0 2.50372f
c29 688 0 0.440545f
c30 686 0 0.187217f
c31 684 0 0.271526f
c32 681 0 24.5661f
c33 676 0 1.0845f
c34 675 0 6.52093f
c35 674 0 0.192012f
c36 669 0 2.10084f
c37 666 0 1.61909f
c38 663 0 0.137097f
c39 662 0 2.46923f
c40 661 0 0.129413f
c41 660 0 0.382151f
c42 659 0 2.12137f
c43 573 0 0.162892f
c44 571 0 0.72248f
c45 569 0 0.203897f
c46 544 0 2.94311f
c47 530 0 3.05953f
c48 528 0 0.031054f
c49 524 0 6.24623f
c50 523 0 0.161087f
c51 508 0 5.68764f
c52 505 0 3.2536f
r53 981 983 0.000702051 
r54 980 981 0.0832563 
r55 977 980 0.000703354 
r56 973 974 0.00318245 
r57 970 971 0.0392024 
r58 969 970 0.127856 
r59 968 969 0.128574 
r60 967 968 0.0141176 
r61 966 967 0.00135593 
r62 959 973 0.461538 
r63 950 953 1.5675 
r64 950 970 1.5 
r65 947 969 0.0535714 
r66 927 966 0.6 
r67 925 961 0.0297924 
r68 925 927 3.23529 
r69 917 961 0.0158586 
r70 917 918 1.016 
r71 914 973 0.00119641 
r72 971 914 0.110269 
r73 912 914 0.428571 
r74 910 912 0.189 
r75 907 910 0.013 
r76 907 981 0.131579 
r77 903 904 1.13584 
r78 902 903 0.55797 
r79 899 902 0.628223 
r80 899 971 0.3 
r81 892 966 0.0882951 
r82 962 892 0.00438684 
r83 890 892 0.428571 
r84 888 890 0.189 
r85 885 888 0.013 
r86 885 980 0.131579 
r87 955 882 1 
r88 845 879 0.02 
r89 845 846 0.9662 
r90 831 947 2.7305 
r91 831 832 0.0338756 
r92 825 833 0.0338756 
r93 824 832 0.0338756 
r94 821 833 0.00880368 
r95 820 832 0.00880368 
r96 818 874 2.59036 
r97 955 818 1.07807 
r98 821 818 0.88 
r99 820 818 1.064 
r100 817 961 0.0158586 
r101 817 818 1.9975 
r102 816 833 0.0338756 
r103 829 815 0.0632911 
r104 815 813 0.0574488 
r105 812 826 0.0448201 
r106 809 959 1.518 
r107 808 959 0.426 
r108 806 874 1.08482 
r109 804 955 1.06072 
r110 803 918 0.056 
r111 802 803 0.0448201 
r112 802 812 2.13041 
r113 816 699 0.592 
r114 818 699 1.93 
r115 693 947 1.612 
r116 826 693 1.283 
r117 693 968 1.5 
r118 696 688 2 
r119 903 688 2 
r120 699 686 3 
r121 902 686 3 
r122 684 874 3 
r123 904 684 3 
r124 681 896 1.1314 
r125 681 967 0.125 
r126 680 882 0.0075 
r127 879 680 0.056 
r128 896 680 0.24 
r129 678 830 0.102486 
r130 678 829 0.0155975 
r131 846 678 1 
r132 676 825 0.6415 
r133 809 676 0.0446983 
r134 675 824 0.6415 
r135 808 675 0.0446983 
r136 673 696 0.319594 
r137 673 674 0.0100156 
r138 668 669 1.37048 
r139 667 674 0.065217 
r140 666 668 0.0447067 
r141 666 667 1.0122 
r142 663 664 0.678222 
r143 662 669 0.0447675 
r144 662 664 0.650667 
r145 660 674 0.065217 
r146 660 661 0.254146 
r147 659 663 0.0448242 
r148 658 661 0.0446983 
r149 658 659 1.4039 
r150 572 573 0.147619 
r151 568 569 0.14988 
r152 806 568 0.0380723 
r153 565 567 0.143333 
r154 804 564 0.0385542 
r155 562 564 0.14506 
r156 818 561 0.159 
r157 544 818 0.159 
r158 543 573 0.02 
r159 543 561 1.247 
r160 542 569 0.02 
r161 542 544 1.243 
r162 818 541 0.192 
r163 539 818 0.192 
r164 538 539 0.342 
r165 818 538 0.192 
r166 536 818 0.192 
r167 535 536 0.342 
r168 818 535 0.192 
r169 533 818 0.192 
r170 532 533 0.342 
r171 818 532 0.192 
r172 530 818 0.192 
r173 529 572 0.02 
r174 529 541 1.214 
r175 528 571 0.04 
r176 528 530 0.243 
r177 526 568 0.02 
r178 526 571 0.938734 
r179 524 572 0.0380952 
r180 524 830 4.80524 
r181 523 813 0.555238 
r182 523 567 0.0380952 
r183 818 519 0.159 
r184 517 818 0.159 
r185 516 517 0.408 
r186 818 516 0.159 
r187 514 818 0.159 
r188 513 514 0.408 
r189 818 513 0.159 
r190 511 818 0.159 
r191 510 511 0.408 
r192 818 510 0.159 
r193 508 818 0.159 
r194 507 567 0.02 
r195 507 519 1.247 
r196 506 564 0.02 
r197 506 508 1.243 
r198 505 565 0.02 
r199 504 562 0.02 
r200 504 505 4.69271 
.ends

.subckt PM_PC3D31U%U14_MN4$11_gate 98 103 219 224 340 345 410 415 420 425 430
+ 435 449
c0 608 0 0.262319f
c1 599 0 0.434391f
c2 594 0 0.434851f
c3 589 0 0.434575f
c4 584 0 0.435587f
c5 572 0 2.53622f
c6 568 0 0.236421f
c7 553 0 1.11308f
c8 552 0 0.431447f
c9 544 0 0.834078f
c10 542 0 1.1253f
c11 538 0 0.826643f
c12 532 0 0.831111f
c13 526 0 0.840249f
c14 524 0 0.265083f
c15 522 0 0.154919f
c16 519 0 0.549905f
c17 516 0 0.0542673f
c18 515 0 0.491336f
c19 514 0 0.0454806f
c20 512 0 0.877133f
c21 511 0 0.746487f
c22 507 0 1.12148f
c23 503 0 1.12251f
c24 502 0 0.166461f
c25 501 0 8.91614f
c26 498 0 7.05495f
c27 495 0 0.470146f
c28 492 0 15.679f
c29 487 0 1.40565f
c30 485 0 0.126896f
c31 480 0 0.113594f
c32 474 0 0.678933f
c33 473 0 0.0631592f
c34 464 0 0.535943f
c35 456 0 0.535994f
c36 450 0 0.299915f
c37 449 0 0.233998f
c38 442 0 0.166246f
c39 441 0 0.608776f
c40 440 0 0.169456f
c41 439 0 0.609004f
c42 438 0 0.169342f
c43 437 0 0.539737f
c44 435 0 3.10106f
c45 430 0 3.04886f
c46 425 0 3.04886f
c47 420 0 3.04886f
c48 415 0 3.04886f
c49 410 0 3.10216f
c50 354 0 0.974344f
c51 345 0 3.04886f
c52 344 0 0.168943f
c53 340 0 3.04886f
c54 339 0 0.168259f
c55 236 0 0.972748f
c56 224 0 3.04886f
c57 223 0 0.16995f
c58 219 0 3.04886f
c59 218 0 0.170025f
c60 115 0 0.975477f
c61 103 0 3.04886f
c62 102 0 0.169855f
c63 98 0 3.04886f
c64 97 0 0.169912f
r65 601 603 0.0556098 
r66 566 568 6 
r67 603 552 0.000487805 
r68 550 552 1.5 
r69 550 553 0.118418 
r70 546 599 0.00195122 
r71 596 546 0.0536585 
r72 544 546 1.5 
r73 544 548 0.0693333 
r74 540 594 0.000487805 
r75 591 540 0.055122 
r76 538 540 1.5 
r77 538 542 0.0701687 
r78 534 589 0.00292683 
r79 586 534 0.0526829 
r80 532 534 1.5 
r81 532 536 0.0696651 
r82 528 584 0.00536585 
r83 581 528 0.0502439 
r84 526 528 1.5 
r85 526 530 0.0715479 
r86 577 524 0.0521951 
r87 522 524 3 
r88 521 608 0.00341463 
r89 519 521 3 
r90 518 519 0.0609362 
r91 517 519 0.145021 
r92 515 518 0.0604945 
r93 515 516 0.444 
r94 513 516 0.0453233 
r95 513 514 0.08 
r96 550 512 0.101228 
r97 511 514 0.0453233 
r98 511 512 0.926 
r99 510 548 0.02 
r100 553 510 1.459 
r101 508 542 0.0200096 
r102 507 548 0.02 
r103 507 508 1.47 
r104 506 536 0.02 
r105 542 506 1.475 
r106 504 530 0.0200098 
r107 503 536 0.02 
r108 503 504 1.472 
r109 501 517 0.0604945 
r110 501 502 10.879 
r111 498 568 6 
r112 522 496 0.0524051 
r113 496 498 3.76212 
r114 495 522 0.00124031 
r115 494 502 0.0631505 
r116 494 495 0.130853 
r117 566 492 15.6586 
r118 490 492 6 
r119 487 490 1.388 
r120 487 572 6 
r121 484 572 3.376 
r122 480 485 0.0933197 
r123 473 484 0.0447517 
r124 485 473 0.157176 
r125 480 449 0.0666667 
r126 442 474 1.85294 
r127 441 464 5.05882 
r128 440 464 5.05882 
r129 439 456 5.05882 
r130 438 456 5.05882 
r131 437 450 1.85294 
r132 432 442 3.88985 
r133 432 435 183.96 
r134 427 441 3.88985 
r135 427 430 183.96 
r136 422 440 3.88985 
r137 422 425 183.96 
r138 417 439 3.88985 
r139 417 420 183.96 
r140 412 438 3.88985 
r141 412 415 183.96 
r142 407 437 3.88985 
r143 407 410 183.96 
r144 350 354 5.05882 
r145 349 354 5.05882 
r146 344 350 3.88985 
r147 344 345 183.96 
r148 339 349 3.88985 
r149 339 340 183.96 
r150 464 298 0.00142683 
r151 599 298 3 
r152 354 287 0.00133393 
r153 601 287 3 
r154 354 262 0.0278113 
r155 603 262 3 
r156 474 251 0.00142683 
r157 608 251 3 
r158 229 236 5.05882 
r159 228 236 5.05882 
r160 223 229 3.88985 
r161 223 224 183.96 
r162 218 228 3.88985 
r163 218 219 183.96 
r164 456 177 0.00142683 
r165 589 177 3 
r166 236 166 0.00133393 
r167 591 166 3 
r168 141 236 0.0278113 
r169 594 141 3 
r170 464 130 0.0277856 
r171 596 130 3 
r172 108 115 5.05882 
r173 107 115 5.05882 
r174 102 108 3.88985 
r175 102 103 183.96 
r176 97 107 3.88985 
r177 97 98 183.96 
r178 450 56 0.00142683 
r179 577 56 3 
r180 115 45 0.00133393 
r181 581 45 3 
r182 20 115 0.0278113 
r183 584 20 3 
r184 456 9 0.0277856 
r185 586 9 3 
.ends

.subckt PM_PC3D31U%VSSO 167 330 493 564 572 626 632 637 874 958 962 969 998
+ 1005 1017 1032 1034 1042 1048 1052 1059 1069 1071 1083 1128 1132 1138 1144
c0 1144 0 31.4052f
c1 1131 0 3.52185f
c2 1128 0 19.09f
c3 1120 0 7.92036f
c4 1118 0 6.9617f
c5 1112 0 6.96195f
c6 1107 0 6.96199f
c7 1101 0 6.96197f
c8 1096 0 6.96025f
c9 1087 0 0.0960049f
c10 1083 0 0.00200359f
c11 1078 0 8.95235f
c12 1071 0 0.319472f
c13 1069 0 1.23227e-19
c14 1066 0 0.778717f
c15 1052 0 1.39251f
c16 1048 0 1.41261f
c17 1037 0 1.96897f
c18 1034 0 0.00103801f
c19 1032 0 8.25608e-19
c20 1030 0 8.96457f
c21 1015 0 7.8496f
c22 1011 0 1.27875f
c23 1001 0 1.65601f
c24 998 0 58.262f
c25 965 0 1.31273f
c26 962 0 10.6369f
c27 952 0 2.86132f
c28 951 0 0.191221f
c29 948 0 0.0212919f
c30 941 0 2.16922f
c31 938 0 0.0900271f
c32 936 0 0.110773f
c33 934 0 0.0425566f
c34 933 0 0.326672f
c35 932 0 2.13124f
c36 923 0 7.22435f
c37 922 0 2.54594f
c38 920 0 0.0584955f
c39 919 0 0.212005f
c40 917 0 0.0893941f
c41 915 0 1.33246f
c42 914 0 0.0204193f
c43 911 0 0.0328226f
c44 909 0 0.107983f
c45 908 0 0.0484324f
c46 907 0 1.50948f
c47 904 0 2.70895f
c48 901 0 0.475243f
c49 900 0 0.0594287f
c50 899 0 0.293756f
c51 897 0 10.9177f
c52 896 0 0.725625f
c53 886 0 0.708327f
c54 882 0 3.2432f
c55 880 0 0.383003f
c56 879 0 0.713156f
c57 878 0 0.297488f
c58 877 0 3.26314f
c59 876 0 0.383249f
c60 874 0 0.473499f
c61 872 0 0.0145001f
c62 871 0 0.493368f
c63 867 0 0.0689962f
c64 866 0 0.351569f
c65 833 0 0.122915f
c66 832 0 8.7061f
c67 802 0 0.269574f
c68 798 0 7.03694f
c69 796 0 0.146306f
c70 641 0 0.096945f
c71 637 0 0.527752f
c72 632 0 0.00170037f
c73 626 0 0.574102f
c74 604 0 0.305014f
c75 602 0 2.95322f
c76 600 0 0.784796f
c77 598 0 0.100234f
c78 596 0 0.0273444f
c79 594 0 0.237144f
c80 585 0 0.0210227f
c81 572 0 1.90223f
c82 564 0 0.571901f
c83 508 0 5.37124f
c84 408 0 14.0389f
c85 358 0 14.0381f
c86 245 0 14.039f
c87 195 0 14.0391f
c88 32 0 14.0364f
c89 10 0 0.146306f
r90 1142 1144 0.00282778 
r91 1141 1142 0.355444 
r92 1138 1141 0.00283333 
r93 1134 1135 0.0111317 
r94 1131 1134 0.0090538 
r95 1131 1132 0.02 
r96 1125 1126 0.204064 
r97 1124 1125 0.0248128 
r98 1089 1090 0.0140639 
r99 1082 1083 0.0126606 
r100 1120 1080 0.0113761 
r101 1078 1080 0.0638298 
r102 1075 1126 2 
r103 1071 1075 0.000761905 
r104 1066 1069 0.04 
r105 1066 1125 0.6 
r106 1032 1082 0.013211 
r107 1078 1032 0.000917431 
r108 1030 1032 0.000913242 
r109 1030 1089 0.0638298 
r110 1016 1017 0.02 
r111 1015 1089 0.0113242 
r112 1013 1015 0.0327869 
r113 1013 1016 0.0178092 
r114 1011 1013 0.029258 
r115 1008 1142 0.357143 
r116 1005 1008 0.21 
r117 1003 1128 0.00544385 
r118 1126 1003 0.0327273 
r119 1001 1003 1 
r120 1001 1005 0.445 
r121 996 998 0.00612761 
r122 996 1120 0.0327869 
r123 1114 994 0.00301483 
r124 994 1118 0.00301741 
r125 992 994 0.0266667 
r126 992 996 0.0287785 
r127 1059 991 0.130435 
r128 991 1112 0.00301741 
r129 1109 991 0.00301741 
r130 989 991 0.0266667 
r131 989 992 0.0242129 
r132 1103 988 0.00301483 
r133 988 1107 0.00301741 
r134 986 988 0.0266667 
r135 986 989 0.0242129 
r136 985 986 0.000615582 
r137 1042 984 0.130435 
r138 984 1101 0.00301741 
r139 1098 984 0.00301741 
r140 982 984 0.0266667 
r141 982 985 0.0235973 
r142 1092 981 0.00301483 
r143 981 1096 0.00301741 
r144 979 981 0.0266667 
r145 979 982 0.0242129 
r146 978 1011 0.02 
r147 978 979 0.0277012 
r148 1016 975 0.428315 
r149 972 1141 0.357143 
r150 969 972 0.21 
r151 967 1137 0.148897 
r152 1135 967 0.0151391 
r153 965 967 1 
r154 965 969 0.445 
r155 954 955 0.0186096 
r156 953 954 0.0201604 
r157 952 1124 0.051016 
r158 952 955 0.00171123 
r159 940 955 0.02 
r160 940 941 4.02 
r161 938 1087 0.0410689 
r162 936 938 3 
r163 935 936 0.148421 
r164 933 935 0.044878 
r165 933 934 0.407059 
r166 932 934 0.0446983 
r167 931 953 0.02 
r168 931 932 3.69176 
r169 1052 930 0.445 
r170 928 930 0.75 
r171 1048 927 0.365 
r172 925 927 0.6 
r173 925 928 0.0219251 
r174 924 951 0.00185772 
r175 924 925 0.0203209 
r176 923 953 0.00181818 
r177 923 928 0.0572727 
r178 921 951 0.0857909 
r179 921 922 3.63314 
r180 919 922 0.0448303 
r181 919 920 0.199481 
r182 916 920 0.0447008 
r183 916 917 0.0831579 
r184 914 915 0.109474 
r185 914 911 0.0429996 
r186 911 948 0.0914286 
r187 908 909 0.135 
r188 907 908 0.0448391 
r189 906 907 2.75862 
r190 904 1037 6 
r191 901 948 0.0429996 
r192 901 904 0.0694737 
r193 899 906 0.044715 
r194 899 900 0.466667 
r195 898 1134 0.02 
r196 897 951 0.00185772 
r197 897 898 0.173904 
r198 896 900 0.0450432 
r199 1137 896 1.29371 
r200 888 1083 0.230275 
r201 886 1078 0.210275 
r202 883 1037 3.78429 
r203 881 1034 0.229041 
r204 881 882 0.0863581 
r205 879 1030 0.209132 
r206 879 880 0.0863581 
r207 888 877 0.0861375 
r208 877 878 0.132033 
r209 886 876 0.0861375 
r210 872 874 0.201086 
r211 872 871 0.0421961 
r212 1087 871 1.01412 
r213 866 883 0.0446983 
r214 866 867 0.542857 
r215 863 867 0.0449572 
r216 833 1032 0.128 
r217 832 878 0.0473573 
r218 832 1032 0.126 
r219 802 833 0.0473573 
r220 882 802 0.132033 
r221 798 1032 0.126 
r222 797 1032 0.128 
r223 796 797 0.0473573 
r224 796 880 0.250407 
r225 604 637 0.0115789 
r226 1124 604 0.5 
r227 602 632 4.92 
r228 941 602 6 
r229 954 600 0.75 
r230 598 641 0.04 
r231 917 598 3 
r232 596 626 0.0494737 
r233 915 596 2 
r234 863 594 0.2775 
r235 909 594 6 
r236 585 600 0.437895 
r237 585 586 0.0407126 
r238 586 572 2.31765 
r239 641 564 0.340267 
r240 511 962 0.0419737 
r241 958 511 0.0413851 
r242 985 511 0.00128205 
r243 975 508 2.21804 
r244 508 1135 0.6 
r245 994 493 0.130435 
r246 1059 408 0.00313778 
r247 1112 408 0.0652174 
r248 493 398 0.0031351 
r249 1114 398 0.0652174 
r250 358 493 0.00314046 
r251 1118 358 0.0652174 
r252 1080 347 0.0141284 
r253 347 1082 0.0652174 
r254 988 330 0.130435 
r255 1042 245 0.00313778 
r256 1101 245 0.0652174 
r257 330 235 0.0031351 
r258 1103 235 0.0652174 
r259 195 330 0.00314046 
r260 1107 195 0.0652174 
r261 185 1059 0.00313778 
r262 1109 185 0.0652174 
r263 981 167 0.130435 
r264 82 1034 0.0126027 
r265 1032 82 0.0131507 
r266 1090 82 0.0652174 
r267 167 72 0.0031351 
r268 1092 72 0.0652174 
r269 32 167 0.00314046 
r270 1096 32 0.0652174 
r271 22 1042 0.00313778 
r272 1098 22 0.0652174 
r273 10 876 0.250407 
r274 10 798 0.0473573 
.ends

.subckt PM_PC3D31U%CIN 14 19 24 61 125 160
c0 157 0 0.112303f
c1 155 0 7.07074f
c2 145 0 15.725f
c3 136 0 4.21598f
c4 130 0 0.143541f
c5 128 0 5.08146f
c6 122 0 0.0723692f
c7 119 0 0.037637f
c8 117 0 0.0810017f
c9 115 0 1.38832f
c10 112 0 0.0937442f
c11 109 0 1.95482f
c12 105 0 1.35086f
c13 104 0 0.0379464f
c14 103 0 3.153f
c15 102 0 3.30766f
c16 100 0 0.0895149f
c17 97 0 0.0898897f
c18 94 0 0.0375884f
c19 93 0 0.855486f
c20 92 0 0.0338006f
c21 88 0 1.37568f
c22 85 0 0.0345401f
c23 84 0 0.568273f
c24 80 0 7.74777f
c25 74 0 0.246801f
c26 61 0 0.0075967f
c27 48 0 2.69637f
c28 42 0 0.572055f
c29 38 0 0.0729834f
c30 37 0 1.06207f
c31 35 0 0.0743514f
c32 31 0 0.350684f
c33 29 0 0.357702f
c34 24 0 6.32264e-19
c35 23 0 0.940805f
c36 19 0 5.39284e-19
c37 18 0 1.11847f
c38 14 0 0.348237f
r39 157 160 0.0207123 
r40 157 158 0.0568712 
r41 143 145 3.24571 
r42 142 143 0.424286 
r43 140 142 11.73 
r44 133 155 6 
r45 145 130 6 
r46 128 130 6 
r47 128 133 10.7371 
r48 122 125 0.0207123 
r49 122 157 6 
r50 120 155 11.4788 
r51 117 118 0.0446512 
r52 119 115 2.20571 
r53 112 119 0.0434303 
r54 109 117 0.0447313 
r55 103 120 0.04509 
r56 103 104 7.86286 
r57 148 102 4.69857 
r58 100 102 6 
r59 158 100 0.285714 
r60 98 104 0.0446983 
r61 98 100 0.0457143 
r62 95 97 0.107847 
r63 95 148 6 
r64 93 97 0.0448046 
r65 93 94 1.56857 
r66 92 94 0.0448488 
r67 91 92 0.103226 
r68 88 140 6 
r69 86 88 2.17429 
r70 84 91 0.0448488 
r71 84 85 1.35143 
r72 136 82 7.37143 
r73 80 82 6 
r74 79 85 0.0446983 
r75 79 80 14.7657 
r76 76 136 6 
r77 74 86 0.0446983 
r78 74 76 0.3 
r79 61 50 1.125 
r80 118 50 6 
r81 48 59 4.02571 
r82 115 48 6 
r83 112 45 0.0308571 
r84 45 143 6 
r85 109 43 2.62049 
r86 43 59 6 
r87 105 42 6 
r88 105 39 1.88 
r89 39 142 6 
r90 37 50 0.0125 
r91 37 38 0.0116061 
r92 33 42 0.7625 
r93 32 35 0.07625 
r94 32 33 0.02 
r95 30 38 0.0306792 
r96 30 31 0.453333 
r97 29 38 0.0306792 
r98 28 29 0.453333 
r99 23 31 0.0448998 
r100 23 24 1.1375 
r101 18 28 0.0448998 
r102 18 19 1.1375 
r103 13 35 0.02 
r104 13 14 0.2625 
.ends

.subckt PM_PC3D31U%PAD 21 50 91 120 161 190 247 271 295 319 349 355 380 488 507
+ 514
c0 522 0 26.8792f
c1 515 0 84.0152f
c2 514 0 64.3341f
c3 511 0 159.215f
c4 506 0 1.02561f
c5 499 0 9.97339f
c6 494 0 12.958f
c7 485 0 0.118304f
c8 482 0 207.655f
c9 468 0 15.3329f
c10 450 0 3.86483f
c11 381 0 128.465f
c12 380 0 1.04909f
c13 355 0 13.2018f
c14 349 0 13.1716f
c15 319 0 13.1699f
c16 295 0 13.1832f
c17 271 0 13.4186f
c18 247 0 13.1699f
c19 212 0 7.52869f
c20 190 0 2.9853f
c21 173 0 6.78371f
c22 161 0 2.9848f
c23 144 0 6.78371f
c24 120 0 2.9853f
c25 103 0 6.78371f
c26 91 0 2.9853f
c27 74 0 6.78371f
c28 50 0 2.98608f
c29 33 0 6.78371f
c30 21 0 2.9853f
c31 4 0 6.78371f
r32 522 523 0.118407 
r33 521 522 0.118407 
r34 520 521 0.056883 
r35 519 520 0.061524 
r36 518 519 0.118407 
r37 517 518 0.0830354 
r38 516 517 0.0353716 
r39 514 515 0.0124825 
r40 512 514 0.000593149 
r41 511 512 0.0669731 
r42 506 507 0.00916 
r43 499 517 0.0545455 
r44 494 520 0.015 
r45 485 488 0.00916 
r46 485 506 2 
r47 481 494 0.0264274 
r48 481 482 0.147774 
r49 475 476 0.00752787 
r50 474 475 0.021023 
r51 472 474 0.000537705 