* File: pc3b01.dist.sp.pex
* Created: Sun Jul  4 12:06:31 2010
* Program "Calibre xRC"
* Version "v2008.4_19.14"
* Nominal Temperature: 27C
* Circuit Temperature: 27C
* 
.subckt PM_PC3B01%PAD 21 50 79 108 137 166 218 242 266 290 320 326 389 428 452
+ 459
c0 467 0 26.8888f
c1 460 0 84.1857f
c2 459 0 64.3341f
c3 456 0 159.215f
c4 451 0 1.02644f
c5 444 0 9.96789f
c6 434 0 12.9772f
c7 425 0 0.117887f
c8 423 0 212.594f
c9 408 0 15.3329f
c10 397 0 46.9231f
c11 392 0 65.4578f
c12 390 0 15.8901f
c13 389 0 1.04909f
c14 388 0 3.85076f
c15 326 0 13.4439f
c16 320 0 13.4329f
c17 290 0 13.4291f
c18 266 0 13.4412f
c19 242 0 13.7144f
c20 218 0 13.4278f
c21 176 0 7.52869f
c22 166 0 2.97566f
c23 149 0 6.78268f
c24 137 0 2.97579f
c25 120 0 6.78268f
c26 108 0 2.97579f
c27 91 0 6.78268f
c28 79 0 2.97579f
c29 62 0 6.78268f
c30 50 0 2.97579f
c31 33 0 6.78268f
c32 21 0 2.97566f
c33 4 0 6.78268f
r34 467 468 0.118407 
r35 466 467 0.118407 
r36 465 466 0.056883 
r37 464 465 0.061524 
r38 463 464 0.118407 
r39 462 463 0.0830354 
r40 461 462 0.0353716 
r41 459 460 0.0123902 
r42 457 459 0.000685417 
r43 456 457 0.0669731 
r44 451 452 0.00916 
r45 444 462 0.0545455 
r46 434 465 0.015 
r47 425 428 0.00916 
r48 425 451 2 
r49 423 434 0.0264274 
r50 421 423 0.147454 
r51 421 422 0.0288462 
r52 415 416 0.00752787 
r53 414 415 0.021023 
r54 412 414 0.000537705 
r55 412 456 0.00162999 
r56 410 412 0.000537705 
r57 408 410 0.0285508 
r58 399 451 0.1388 
r59 398 399 0.132996 
r60 397 398 0.0171733 
r61 394 395 0.0171733 
r62 393 394 0.0171733 
r63 392 393 0.0171733 
r64 391 397 0.0142401 
r65 391 395 0.00293318 
r66 390 422 0.00646891 
r67 390 392 0.00818451 
r68 388 444 0.202116 
r69 388 389 0.0147368 
r70 315 320 0.0072093 
r71 392 315 0.0566038 
r72 313 326 0.0072093 
r73 398 313 0.0566038 
r74 286 290 0.0072093 
r75 397 286 0.0566038 
r76 262 266 0.0072093 
r77 395 262 0.0566038 
r78 238 242 0.0072093 
r79 394 238 0.0566038 
r80 214 218 0.0072093 
r81 393 214 0.0566038 
r82 194 197 0.0022831 
r83 416 194 0.0375475 
r84 194 457 0.00547945 
r85 414 193 0.00210084 
r86 191 193 0.000537705 
r87 410 191 0.00210084 
r88 193 182 0.0105115 
r89 415 182 0.00712251 
r90 178 197 0.0187738 
r91 182 178 0.00376393 
r92 416 178 0.00712251 
r93 176 191 0.0142754 
r94 408 176 0.00356125 
r95 460 173 0.345778 
r96 172 468 0.0220132 
r97 172 173 0.319822 
r98 166 153 0.00249413 
r99 173 153 0.0425532 
r100 149 166 0.00249413 
r101 173 149 0.0425532 
r102 460 144 0.345778 
r103 143 467 0.0220132 
r104 143 144 0.319822 
r105 137 124 0.00249413 
r106 144 124 0.0425532 
r107 120 137 0.00249413 
r108 144 120 0.0425532 
r109 460 115 0.345778 
r110 114 466 0.0220132 
r111 114 115 0.319822 
r112 108 95 0.00249413 
r113 115 95 0.0425532 
r114 91 108 0.00249413 
r115 115 91 0.0425532 
r116 460 86 0.345778 
r117 85 464 0.0220132 
r118 85 86 0.319822 
r119 79 66 0.00249413 
r120 86 66 0.0425532 
r121 62 79 0.00249413 
r122 86 62 0.0425532 
r123 460 57 0.345778 
r124 56 463 0.0220132 
r125 56 57 0.319822 
r126 50 37 0.00249413 
r127 57 37 0.0425532 
r128 33 50 0.00249413 
r129 57 33 0.0425532 
r130 460 28 0.345778 
r131 27 461 0.0220132 
r132 27 28 0.319822 
r133 21 8 0.00249413 
r134 28 8 0.0425532 
r135 4 21 0.00249413 
r136 28 4 0.0425532 
.ends

.subckt PM_PC3B01%noxref_2 8 18
c0 20 0 4.82409f
c1 18 0 0.993329f
c2 8 0 6.71098f
r3 18 20 0.158105 
r4 20 8 0.158526 
.ends

.subckt PM_PC3B01%net_m26_VSSO_res 25 97 101 105 109 113
c0 113 0 0.519409f
c1 109 0 0.519409f
c2 105 0 0.519409f
c3 101 0 0.733303f
c4 97 0 0.73297f
c5 93 0 0.864037f
c6 87 0 0.0518462f
c7 53 0 0.0631005f
c8 43 0 0.242979f
c9 42 0 0.19588f
c10 41 0 0.135544f
c11 40 0 0.102874f
c12 39 0 0.162435f
c13 25 0 0.371125f
c14 24 0 0.190505f
c15 23 0 0.0477785f
c16 22 0 0.371634f
r17 88 93 0.0552941 
r18 87 88 0.02 
r19 86 87 0.124706 
r20 54 97 85 
r21 52 113 85 
r22 52 53 0.93595 
r23 51 109 85 
r24 50 51 1.5553 
r25 49 93 2.20253 
r26 48 50 6.2212 
r27 48 49 1.5553 
r28 47 105 85 
r29 46 48 10.0922 
r30 46 47 1.5553 
r31 45 101 85 
r32 44 53 2.23066 
r33 43 54 3.37824 
r34 43 44 10.8571 
r35 42 50 4.70046 
r36 41 53 2.23066 
r37 41 42 9 
r38 40 45 3.37824 
r39 39 46 2.90323 
r40 39 40 10.8571 
r41 24 25 0.18 
r42 86 23 0.0446983 
r43 22 24 0.0446983 
r44 22 23 0.521176 
.ends

.subckt PM_PC3B01%U27_padr 40 46 54 116 118 121 160
c0 230 0 16.1636f
c1 224 0 9.32043f
c2 220 0 15.8982f
c3 200 0 0.146231f
c4 199 0 0.0373445f
c5 198 0 0.0462617f
c6 197 0 0.0871675f
c7 194 0 6.59892f
c8 191 0 0.608503f
c9 189 0 5.64394f
c10 187 0 0.516633f
c11 185 0 0.0693973f
c12 184 0 0.207306f
c13 183 0 0.411447f
c14 176 0 14.2848f
c15 174 0 1.73874f
c16 165 0 1.5513f
c17 161 0 0.43683f
c18 160 0 1.07645f
c19 159 0 0.703354f
c20 140 0 0.39755f
c21 136 0 0.0843457f
c22 121 0 1.11746f
c23 118 0 0.570554f
c24 116 0 1.02507f
c25 109 0 0.093022f
c26 88 0 16.1005f
c27 83 0 0.379876f
c28 82 0 0.361574f
c29 80 0 0.413908f
c30 76 0 0.426997f
c31 70 0 0.226785f
c32 69 0 0.0211987f
c33 68 0 0.0739078f
c34 66 0 0.049455f
c35 65 0 0.0449f
c36 64 0 0.0790343f
c37 60 0 0.302392f
c38 58 0 0.0282286f
c39 57 0 0.0954138f
c40 54 0 1.27492f
c41 51 0 0.0419982f
c42 50 0 0.384368f
c43 46 0 2.00796f
c44 44 0 0.44954f
c45 40 0 1.24826f
r46 230 222 0.172857 
r47 220 222 6 
r48 219 220 12.3667 
r49 200 202 3 
r50 199 200 0.109474 
r51 199 197 0.0456991 
r52 197 198 0.147143 
r53 194 230 2 
r54 192 198 0.0446983 
r55 192 194 10.3129 
r56 191 202 0.30381 
r57 224 189 0.185079 
r58 187 189 1.2 
r59 186 187 0.482857 
r60 184 186 0.0446983 
r61 184 185 0.125714 
r62 183 185 0.0446983 
r63 182 191 0.0446983 
r64 182 183 0.407619 
r65 176 179 2.0825 
r66 174 176 0.765 
r67 159 224 0.18836 
r68 159 160 0.0147368 
r69 125 127 2.38133 
r70 140 109 0.77 
r71 108 121 168.333 
r72 108 109 3.92502 
r73 103 118 51.6667 
r74 102 103 1.66667 
r75 95 116 168.333 
r76 136 95 3.6393 
r77 174 90 6 
r78 127 88 0.434667 
r79 179 88 6 
r80 179 85 0.8025 
r81 85 140 6 
r82 83 172 1.2525 
r83 83 219 6 
r84 82 136 0.7825 
r85 172 82 6 
r86 165 80 6 
r87 77 168 0.8 
r88 165 77 2.88 
r89 77 127 6 
r90 168 76 6 
r91 74 219 2.61067 
r92 161 74 6 
r93 161 71 0.482667 
r94 71 125 6 
r95 70 90 0.05 
r96 66 76 0.642857 
r97 65 80 0.642857 
r98 64 70 0.0446983 
r99 63 69 0.0338756 
r100 63 64 0.1875 
r101 60 102 1.16667 
r102 59 69 0.0338756 
r103 59 60 0.245 
r104 57 69 0.00880368 
r105 57 58 0.25 
r106 53 58 0.0446983 
r107 53 54 1.2575 
r108 52 54 1.3775 
r109 50 52 0.0447588 
r110 50 51 0.544 
r111 68 46 2.375 
r112 44 68 0.12 
r113 43 66 0.0449572 
r114 43 44 0.8475 
r115 39 65 0.0449572 
r116 39 40 1.4975 
r117 38 51 0.0447588 
r118 38 40 1.3775 
.ends

.subckt PM_PC3B01%VSS 587 814 836 848 868 873 885 888 894
c0 894 0 88.8651f
c1 885 0 53.7653f
c2 871 0 2.37405f
c3 868 0 0.00368951f
c4 865 0 1.24098f
c5 848 0 4.21885f
c6 847 0 14.0665f
c7 833 0 1.88726f
c8 825 0 15.2455f
c9 811 0 1.45509f
c10 796 0 25.2965f
c11 786 0 0.0842555f
c12 785 0 10.1136f
c13 784 0 0.0657505f
c14 783 0 7.75903f
c15 782 0 0.729043f
c16 781 0 0.269279f
c17 779 0 0.849329f
c18 778 0 0.0372194f
c19 771 0 0.198007f
c20 762 0 8.75024f
c21 759 0 0.25357f
c22 757 0 1.92721f
c23 639 0 2.4925f
c24 634 0 1.16067f
c25 629 0 2.25025f
c26 620 0 1.87502f
c27 618 0 0.228409f
c28 616 0 0.276497f
c29 613 0 26.0718f
c30 607 0 0.816164f
c31 606 0 6.34069f
c32 603 0 0.100013f
c33 600 0 2.03933f
c34 594 0 0.137389f
c35 593 0 2.48682f
c36 592 0 0.154374f
c37 591 0 2.26491f
c38 587 0 0.00279637f
c39 539 0 0.162892f
c40 537 0 0.721903f
c41 535 0 0.203897f
c42 510 0 2.94262f
c43 496 0 3.0577f
c44 494 0 0.031054f
c45 490 0 7.73887f
c46 489 0 0.203811f
c47 474 0 5.70482f
c48 471 0 3.25515f
r49 892 894 0.000702051 
r50 891 892 0.0832563 
r51 888 891 0.000703354 
r52 884 885 0.00318245 
r53 881 882 0.0344168 
r54 880 881 0.167059 
r55 879 880 0.128215 
r56 878 879 0.000358923 
r57 877 878 0.0141176 
r58 871 884 0.461538 
r59 865 868 1.28857 
r60 865 882 1.5 
r61 859 880 0.0535714 
r62 853 855 0.0154762 
r63 853 879 2 
r64 847 848 2.4155 
r65 840 884 0.00119641 
r66 882 840 0.0758524 
r67 838 840 0.428571 
r68 836 838 0.189 
r69 833 836 0.013 
r70 833 892 0.131579 
r71 829 830 0.56934 
r72 828 829 1.12447 
r73 825 828 0.628223 
r74 825 881 0.3 
r75 818 877 0.089651 
r76 873 818 0.00438684 
r77 816 818 0.428571 
r78 814 816 0.189 
r79 811 814 0.013 
r80 811 891 0.131579 
r81 848 805 2.59036 
r82 785 786 0.0338756 
r83 783 859 2.8715 
r84 783 784 0.0338756 
r85 777 786 0.0338756 
r86 776 784 0.0338756 
r87 773 786 0.00880368 
r88 773 848 0.958 
r89 772 784 0.00880368 
r90 772 848 0.986 
r91 771 779 0.0574488 
r92 781 771 0.0632911 
r93 768 778 0.0448201 
r94 765 871 1.518 
r95 764 871 0.426 
r96 762 805 1.08482 
r97 757 768 2.13041 
r98 634 853 0.0295238 
r99 634 879 1 
r100 785 631 0.733 
r101 848 631 1.93 
r102 629 798 3 
r103 626 859 1.612 
r104 778 626 1.283 
r105 626 878 1.5 
r106 624 848 1.07807 
r107 759 624 1.06072 
r108 624 639 1 
r109 798 620 0.24 
r110 829 620 1.5 
r111 631 618 3 
r112 828 618 3 
r113 616 805 3 
r114 830 616 3 
r115 613 822 1.1314 
r116 613 877 0.125 
r117 612 639 0.0075 
r118 636 612 0.056 
r119 822 612 0.24 
r120 610 782 0.102486 
r121 610 781 0.0155975 
r122 796 610 1 
r123 608 796 0.9662 
r124 608 636 0.02 
r125 607 777 0.5005 
r126 765 607 0.0446983 
r127 606 776 0.5005 
r128 764 606 0.0446983 
r129 605 629 0.830244 
r130 604 629 0.573659 
r131 603 847 0.688 
r132 757 603 0.0448201 
r133 599 600 1.37048 
r134 594 605 0.0448242 
r135 594 595 0.678222 
r136 593 600 0.0447675 
r137 593 595 0.650667 
r138 592 604 0.0446983 
r139 591 599 0.0447067 
r140 591 592 1.45854 
r141 855 587 0.31875 
r142 538 539 0.147619 
r143 534 535 0.14988 
r144 762 534 0.0380723 
r145 531 533 0.143333 
r146 759 530 0.0385542 
r147 528 530 0.14506 
r148 848 527 0.159 
r149 510 848 0.159 
r150 509 539 0.02 
r151 509 527 1.247 
r152 508 535 0.02 
r153 508 510 1.243 
r154 848 507 0.192 
r155 505 848 0.192 
r156 504 505 0.342 
r157 848 504 0.192 
r158 502 848 0.192 
r159 501 502 0.342 
r160 848 501 0.192 
r161 499 848 0.192 
r162 498 499 0.342 
r163 848 498 0.192 
r164 496 848 0.192 
r165 495 538 0.02 
r166 495 507 1.214 
r167 494 537 0.04 
r168 494 496 0.243 
r169 492 534 0.02 
r170 492 537 0.938734 
r171 490 538 0.0380952 
r172 490 782 4.80524 
r173 489 779 0.555238 
r174 489 533 0.0380952 
r175 848 485 0.159 
r176 483 848 0.159 
r177 482 483 0.408 
r178 848 482 0.159 
r179 480 848 0.159 
r180 479 480 0.408 
r181 848 479 0.159 
r182 477 848 0.159 
r183 476 477 0.408 
r184 848 476 0.159 
r185 474 848 0.159 
r186 473 533 0.02 
r187 473 485 1.247 
r188 472 530 0.02 
r189 472 474 1.243 
r190 471 531 0.02 
r191 470 528 0.02 
r192 470 471 4.69271 
.ends

.subckt PM_PC3B01%U27_U69$9_gate 245 250 255 260 265 270 275 280 285 290 310
c0 448 0 0.253192f
c1 444 0 0.130993f
c2 442 0 0.500823f
c3 437 0 0.500823f
c4 432 0 0.500823f
c5 427 0 0.500823f
c6 418 0 2.82662f
c7 402 0 11.1678f
c8 401 0 0.301614f
c9 399 0 0.0792102f
c10 398 0 0.329409f
c11 394 0 0.0822236f
c12 393 0 0.39325f
c13 390 0 6.54958f
c14 374 0 0.292678f
c15 369 0 0.136486f
c16 363 0 0.0903556f
c17 355 0 0.171215f
c18 349 0 0.685989f
c19 341 0 0.542719f
c20 333 0 0.542719f
c21 325 0 0.542719f
c22 317 0 0.542719f
c23 311 0 0.312819f
c24 310 0 0.278026f
c25 301 0 0.159792f
c26 300 0 0.640056f
c27 299 0 0.167968f
c28 298 0 0.643459f
c29 297 0 0.16869f
c30 296 0 0.640056f
c31 295 0 0.167968f
c32 294 0 0.640056f
c33 293 0 0.167968f
c34 292 0 0.554745f
c35 290 0 3.10391f
c36 285 0 3.04886f
c37 280 0 3.04886f
c38 275 0 3.04886f
c39 270 0 3.04886f
c40 265 0 3.04886f
c41 260 0 3.04886f
c42 255 0 3.04886f
c43 250 0 3.04886f
c44 245 0 3.10442f
r45 400 401 0.654286 
r46 398 401 0.0446983 
r47 398 399 0.352857 
r48 397 448 0.00341463 
r49 395 397 3 
r50 394 402 0.04 
r51 394 395 0.116145 
r52 393 400 0.0607454 
r53 393 395 0.00289157 
r54 390 444 6 
r55 388 399 0.0448488 
r56 388 390 6.78194 
r57 387 442 0.00195122 
r58 439 387 0.0536585 
r59 385 387 1.5 
r60 402 385 1.62683 
r61 384 437 0.000487805 
r62 434 384 0.055122 
r63 382 384 1.5 
r64 382 385 0.919512 
r65 381 432 0.00292683 
r66 429 381 0.0526829 
r67 379 381 1.5 
r68 379 382 0.923415 
r69 378 427 0.00536585 
r70 424 378 0.0502439 
r71 376 378 1.5 
r72 376 379 0.923415 
r73 420 374 0.0521951 
r74 372 374 3 
r75 372 376 0.863415 
r76 367 444 0.130323 
r77 366 369 0.153548 
r78 366 367 0.02 
r79 363 418 6 
r80 361 369 0.02 
r81 361 363 0.132903 
r82 360 418 3.99613 
r83 359 360 0.026898 
r84 355 359 0.10143 
r85 355 310 0.106667 
r86 301 349 1.85294 
r87 300 341 5.05882 
r88 299 341 5.05882 
r89 298 333 5.05882 
r90 297 333 5.05882 
r91 296 325 5.05882 
r92 295 325 5.05882 
r93 294 317 5.05882 
r94 293 317 5.05882 
r95 292 311 1.85294 
r96 287 301 3.88985 
r97 287 290 183.96 
r98 282 300 3.88985 
r99 282 285 183.96 
r100 277 299 3.88985 
r101 277 280 183.96 
r102 272 298 3.88985 
r103 272 275 183.96 
r104 267 297 3.88985 
r105 267 270 183.96 
r106 262 296 3.88985 
r107 262 265 183.96 
r108 257 295 3.88985 
r109 257 260 183.96 
r110 252 294 3.88985 
r111 252 255 183.96 
r112 247 293 3.88985 
r113 247 250 183.96 
r114 242 292 3.88985 
r115 242 245 183.96 
r116 349 171 0.00142683 
r117 448 171 3 
r118 341 153 0.00142683 
r119 442 153 3 
r120 333 128 0.00142683 
r121 437 128 3 
r122 341 117 0.0277856 
r123 439 117 3 
r124 325 92 0.00142683 
r125 432 92 3 
r126 333 81 0.0277856 
r127 434 81 3 
r128 317 56 0.00142683 
r129 427 56 3 
r130 325 45 0.0277856 
r131 429 45 3 
r132 311 20 0.00142683 
r133 420 20 3 
r134 317 9 0.0277856 
r135 424 9 3 
.ends

.subckt PM_PC3B01%VSSO 408 410 441 754 758 765 794 801 808 827 829 834 840 849
+ 855 861 870 876 885 891 897 906 912 918 927 933 945 994 1000 1004 1010
c0 1010 0 31.6453f
c1 997 0 1.99786f
c2 994 0 45.7438f
c3 977 0 7.8411f
c4 975 0 6.85808f
c5 970 0 6.85767f
c6 965 0 6.85767f
c7 960 0 6.85767f
c8 955 0 6.85767f
c9 940 0 8.95235f
c10 933 0 0.342408f
c11 918 0 1.36597f
c12 912 0 1.40025f
c13 897 0 1.35721f
c14 891 0 1.35624f
c15 876 0 1.34294f
c16 861 0 1.0242f
c17 855 0 1.10773f
c18 840 0 0.841947f
c19 834 0 1.36525f
c20 832 0 0.198397f
c21 827 0 8.25608e-19
c22 825 0 8.96457f
c23 813 0 7.7679f
c24 807 0 1.27875f
c25 797 0 1.65707f
c26 794 0 57.8645f
c27 761 0 1.32473f
c28 758 0 10.2828f
c29 746 0 0.107661f
c30 740 0 4.75436f
c31 737 0 0.117384f
c32 736 0 0.0408183f
c33 735 0 1.50576f
c34 733 0 0.0508991f
c35 732 0 0.316672f
c36 731 0 0.609572f
c37 725 0 0.582661f
c38 721 0 0.708327f
c39 719 0 0.031775f
c40 718 0 3.246f
c41 716 0 0.383003f
c42 715 0 0.713156f
c43 714 0 0.298684f
c44 713 0 3.27473f
c45 712 0 0.383249f
c46 711 0 1.84371f
c47 709 0 0.0561467f
c48 708 0 0.182743f
c49 707 0 0.34311f
c50 674 0 0.122915f
c51 673 0 9.05134f
c52 640 0 0.260002f
c53 636 0 7.03694f
c54 633 0 0.146306f
c55 441 0 0.431018f
c56 429 0 0.824961f
c57 427 0 0.100241f
c58 425 0 0.227558f
c59 423 0 1.39309f
c60 422 0 0.0278921f
c61 410 0 0.77777f
c62 409 0 0.107939f
c63 408 0 0.346872f
c64 407 0 0.193042f
c65 404 0 0.0481914f
c66 403 0 0.436605f
c67 390 0 0.114892f
c68 317 0 5.23757f
c69 284 0 14.0527f
c70 234 0 14.0521f
c71 184 0 14.0521f
c72 134 0 14.0521f
c73 84 0 14.0521f
c74 12 0 0.146306f
r75 1008 1010 0.00282778 
r76 1007 1008 0.355444 
r77 1004 1007 0.00283333 
r78 999 1001 0.0213115 
r79 999 1000 0.02 
r80 997 999 0.00327869 
r81 991 992 0.166203 
r82 990 991 0.0396791 
r83 989 990 0.043262 
r84 988 989 0.0347594 
r85 987 988 0.0198396 
r86 986 987 0.0992513 
r87 985 986 0.0253476 
r88 984 985 0.0334759 
r89 983 984 0.0629947 
r90 982 983 0.0226738 
r91 981 997 0.02 
r92 981 982 0.0816043 
r93 949 950 0.0140639 
r94 944 945 0.0126606 
r95 977 942 0.0113761 
r96 940 942 0.0638298 
r97 937 992 2 
r98 933 937 0.000380952 
r99 921 991 0.6 
r100 918 921 0.285 
r101 915 990 0.6 
r102 912 915 0.32 
r103 900 989 0.6 
r104 897 900 0.36 
r105 894 988 0.6 
r106 891 894 0.37 
r107 879 986 0.6 
r108 876 879 0.3225 
r109 864 985 0.6 
r110 861 864 0.325 
r111 858 984 0.6 
r112 855 858 0.3425 
r113 843 983 0.75 
r114 840 843 0.04 
r115 837 982 0.6 
r116 834 837 0.365 
r117 827 944 0.013211 
r118 940 827 0.000917431 
r119 825 827 0.000913242 
r120 825 949 0.0638298 
r121 813 949 0.0113242 
r122 811 813 0.0327869 
r123 810 811 0.029258 
r124 807 810 0.0131449 
r125 807 808 0.02 
r126 804 1008 0.357143 
r127 801 804 0.21 
r128 799 994 0.00544385 
r129 992 799 0.0345455 
r130 797 799 1 
r131 797 801 0.445 
r132 792 794 0.00612761 
r133 792 977 0.0327869 
r134 927 790 0.130435 
r135 790 975 0.00301741 
r136 972 790 0.00301741 
r137 788 790 0.0266667 
r138 788 792 0.0287785 
r139 906 787 0.130435 
r140 787 970 0.00301741 
r141 967 787 0.00301741 
r142 785 787 0.0266667 
r143 785 788 0.0242129 
r144 885 784 0.130435 
r145 784 965 0.00301741 
r146 962 784 0.00301741 
r147 782 784 0.0266667 
r148 782 785 0.0242129 
r149 781 782 0.000615582 
r150 870 780 0.130435 
r151 780 960 0.00301741 
r152 957 780 0.00301741 
r153 778 780 0.0266667 
r154 778 781 0.0235973 
r155 849 777 0.130435 
r156 777 955 0.00301741 
r157 952 777 0.00301741 
r158 775 777 0.0266667 
r159 775 778 0.0242129 
r160 774 810 0.02 
r161 774 775 0.0277012 
r162 811 771 0.446124 
r163 768 1007 0.357143 
r164 765 768 0.21 
r165 763 1003 0.144162 
r166 1001 763 0.0334426 
r167 761 763 1 
r168 761 765 0.445 
r169 749 832 3 
r170 746 749 0.0536842 
r171 739 746 0.02 
r172 739 740 6.35789 
r173 736 737 0.1275 
r174 735 736 0.0448391 
r175 734 735 2.75862 
r176 732 734 0.044715 
r177 732 733 0.466667 
r178 731 733 0.0450432 
r179 1003 731 1.29371 
r180 725 746 0.02 
r181 725 726 0.746316 
r182 723 945 0.230275 
r183 721 940 0.210275 
r184 719 832 0.109474 
r185 717 829 0.229041 
r186 717 718 0.0863581 
r187 715 825 0.209132 
r188 715 716 0.0863581 
r189 723 713 0.0861375 
r190 713 714 0.132033 
r191 721 712 0.0861375 
r192 719 711 0.0420103 
r193 710 711 3.01467 
r194 708 710 0.0446983 
r195 708 709 0.278667 
r196 707 709 0.0447588 
r197 674 827 0.128 
r198 673 714 0.0473573 
r199 673 827 0.126 
r200 640 674 0.0473573 
r201 718 640 0.132033 
r202 636 827 0.126 
r203 634 827 0.128 
r204 633 634 0.0473573 
r205 633 716 0.250407 
r206 740 431 6 
r207 987 429 0.75 
r208 737 427 3 
r209 441 425 0.0610526 
r210 726 425 2 
r211 422 429 0.437895 
r212 422 423 0.0407126 
r213 409 431 0.0413535 
r214 409 410 1.14783 
r215 407 408 0.221176 
r216 403 407 0.0446983 
r217 403 404 0.608235 
r218 401 404 0.0446983 
r219 401 423 2.01647 
r220 390 707 0.6025 
r221 390 427 0.0265396 
r222 320 758 0.0419737 
r223 754 320 0.0413851 
r224 781 320 0.00128205 
r225 771 317 2.21804 
r226 317 1001 0.6 
r227 927 284 0.00313778 
r228 975 284 0.0652174 
r229 942 273 0.0141284 
r230 273 944 0.0652174 
r231 906 234 0.00313778 
r232 970 234 0.0652174 
r233 224 927 0.00313778 
r234 972 224 0.0652174 
r235 885 184 0.00313778 
r236 965 184 0.0652174 
r237 174 906 0.00313778 
r238 967 174 0.0652174 
r239 870 134 0.00313778 
r240 960 134 0.0652174 
r241 124 885 0.00313778 
r242 962 124 0.0652174 
r243 849 84 0.00313778 
r244 955 84 0.0652174 
r245 74 870 0.00313778 
r246 957 74 0.0652174 
r247 34 829 0.0126027 
r248 827 34 0.0131507 
r249 950 34 0.0652174 
r250 24 849 0.00313778 
r251 952 24 0.0652174 
r252 12 712 0.250407 
r253 12 636 0.0473573 
.ends

.subckt PM_PC3B01%U15_ngate 56 63 70 77 85 93 141 147
c0 191 0 16.5106f
c1 184 0 0.533277f
c2 181 0 9.62082f
c3 179 0 0.0915635f
c4 178 0 4.89359f
c5 175 0 0.195375f
c6 172 0 0.463651f
c7 170 0 0.100208f
c8 166 0 0.237872f
c9 149 0 0.635203f
c10 148 0 0.161934f
c11 147 0 3.04886f
c12 141 0 3.04886f
c13 108 0 0.134371f
c14 105 0 1.32025f
c15 104 0 0.133977f
c16 101 0 0.811457f
c17 100 0 0.0428228f
c18 99 0 0.0461791f
c19 98 0 0.0261329f
c20 97 0 0.0261329f
c21 93 0 0.986391f
c22 90 0 0.124915f
c23 89 0 1.635f
c24 85 0 1.2589f
c25 82 0 0.0767532f
c26 81 0 0.252995f
c27 77 0 1.35208f
c28 74 0 0.347486f
c29 70 0 1.42004f
c30 67 0 0.248734f
c31 63 0 1.459f
c32 61 0 0.0493083f
c33 60 0 0.28899f
c34 56 0 1.43019f
c35 8 0 0.567124f
r36 198 199 0.0817143 
r37 190 191 0.397333 
r38 187 190 6.86933 
r39 181 199 3 
r40 179 181 4.5625 
r41 177 179 0.0552323 
r42 177 178 7.88299 
r43 187 175 6 
r44 173 175 6 
r45 172 178 0.0448752 
r46 172 173 0.582667 
r47 168 170 0.0755556 
r48 166 198 0.02 
r49 159 168 0.02 
r50 184 156 0.00142683 
r51 153 184 0.0277856 
r52 149 184 5.05882 
r53 148 184 5.05882 
r54 143 149 3.88985 
r55 143 147 183.96 
r56 138 148 3.88985 
r57 138 141 183.96 
r58 108 118 0.0370021 
r59 170 108 6 
r60 105 164 2.59143 
r61 105 191 6 
r62 164 104 6 
r63 159 101 1.53143 
r64 101 190 6 
r65 99 104 0.0613333 
r66 92 93 1.2375 
r67 91 100 0.0310989 
r68 90 92 0.044713 
r69 90 91 0.152258 
r70 89 100 0.0112231 
r71 88 99 0.0447675 
r72 88 89 3.52 
r73 118 85 1.6275 
r74 83 85 1.28 
r75 81 100 0.0310989 
r76 81 82 0.301935 
r77 76 82 0.044713 
r78 76 77 1.2375 
r79 75 98 0.0338756 
r80 74 83 0.0446983 
r81 74 75 0.51 
r82 69 98 0.00880368 
r83 69 70 1.28 
r84 68 97 0.0338756 
r85 67 98 0.0338756 
r86 67 68 0.43 
r87 62 97 0.00880368 
r88 62 63 1.415 
r89 60 97 0.0338756 
r90 60 61 0.51 
r91 55 61 0.0446983 
r92 55 56 1.415 
r93 166 26 0.0204878 
r94 26 156 3 
r95 8 198 0.000285714 
r96 8 153 3 
.ends

.subckt PM_PC3B01%U27_U72_pgate 47 49 60 71 95 101 106
c0 192 0 0.414606f
c1 189 0 0.891404f
c2 187 0 0.223302f
c3 185 0 0.151681f
c4 183 0 16.0045f
c5 177 0 0.895489f
c6 165 0 6.04415f
c7 163 0 0.0944101f
c8 162 0 0.198447f
c9 158 0 0.679809f
c10 156 0 0.0612167f
c11 155 0 0.12178f
c12 154 0 7.07335f
c13 145 0 0.730208f
c14 138 0 0.14682f
c15 137 0 0.0573523f
c16 132 0 0.0940331f
c17 128 0 0.0221982f
c18 127 0 0.0419399f
c19 125 0 0.0743798f
c20 122 0 2.24557f
c21 120 0 0.0639048f
c22 119 0 0.356053f
c23 113 0 0.0623778f
c24 110 0 0.352109f
c25 106 0 1.50727f
c26 101 0 0.972253f
c27 99 0 0.0470945f
c28 98 0 0.417086f
c29 97 0 0.162756f
c30 95 0 1.51391f
c31 71 0 2.47474f
c32 65 0 1.82898f
c33 60 0 2.25487f
c34 58 0 0.0527619f
c35 57 0 0.400597f
c36 45 0 5.1026f
c37 36 0 4.86132f
c38 35 0 0.39517f
c39 29 0 0.40535f
c40 26 0 0.872878f
c41 23 0 0.393875f
r42 183 185 6 
r43 168 170 6 
r44 165 168 8.70933 
r45 165 185 6 
r46 162 170 0.0112 
r47 162 163 0.0514821 
r48 160 192 0.219024 
r49 189 160 0.164878 
r50 158 160 6 
r51 157 158 0.218765 
r52 155 157 0.0574078 
r53 155 156 0.149677 
r54 154 156 0.0446983 
r55 163 154 10.3252 
r56 150 187 6 
r57 147 183 3.36774 
r58 180 147 11.3948 
r59 145 147 6 
r60 145 150 1.15143 
r61 137 138 0.12 
r62 134 137 0.0451268 
r63 130 187 0.218571 
r64 129 132 0.0785714 
r65 129 130 0.02 
r66 121 132 0.02 
r67 121 122 3.30571 
r68 119 122 0.0461631 
r69 119 120 0.30026 
r70 114 128 0.0327921 
r71 113 128 0.0327921 
r72 112 120 0.0449793 
r73 112 113 0.0967164 
r74 111 127 0.0343218 
r75 110 128 0.00972501 
r76 110 111 0.514286 
r77 105 127 0.00843222 
r78 105 106 1.59625 
r79 100 125 0.0200702 
r80 100 101 1.20375 
r81 98 127 0.0343218 
r82 98 99 0.614603 
r83 97 125 0.0982456 
r84 96 99 0.0452323 
r85 96 97 0.395385 
r86 114 95 1.59625 
r87 71 68 2.3375 
r88 138 68 6 
r89 134 65 2.67 
r90 65 180 6 
r91 64 71 2.0425 
r92 59 60 2.0425 
r93 58 64 0.0446983 
r94 57 59 0.0446983 
r95 57 58 0.51 
r96 45 49 394.95 
r97 192 44 2.81176 
r98 44 45 1.5 
r99 36 47 394.95 
r100 35 189 2.74706 
r101 35 36 1.5 
r102 33 49 394.95 
r103 32 33 1.5 
r104 177 29 0.219512 
r105 29 32 2.78235 
r106 26 177 0.164878 
r107 24 47 394.95 
r108 23 26 2.74706 
r109 23 24 1.5 
.ends

.subckt PM_PC3B01%U15_pgate 31 38 43 50 57 68 73 113 118 141 187 193
c0 208 0 2.87253f
c1 197 0 1.20506f
c2 193 0 0.00447021f
c3 187 0 0.00533422f
c4 176 0 15.9159f
c5 174 0 0.992437f
c6 171 0 0.808629f
c7 169 0 1.50352f
c8 165 0 1.49779f
c9 158 0 0.0544354f
c10 157 0 0.281237f
c11 151 0 0.994811f
c12 146 0 1.94812f
c13 143 0 0.0585713f
c14 142 0 0.191687f
c15 141 0 0.00280858f
c16 118 0 0.0118835f
c17 113 0 0.0122797f
c18 99 0 2.79555f
c19 96 0 1.17019f
c20 94 0 0.712525f
c21 93 0 2.54614f
c22 89 0 0.280191f
c23 85 0 0.028277f
c24 83 0 0.028277f
c25 81 0 0.0289103f
c26 80 0 0.232744f
c27 79 0 0.028277f
c28 78 0 0.0336046f
c29 73 0 1.46953f
c30 68 0 1.39196f
c31 65 0 0.344617f
c32 63 0 0.102424f
c33 61 0 0.45127f
c34 57 0 1.4976f
c35 54 0 0.287058f
c36 50 0 2.86743f
c37 48 0 0.0459223f
c38 47 0 0.286924f
c39 43 0 2.17613f
c40 38 0 2.23275f
c41 36 0 0.0505388f
c42 35 0 0.316033f
c43 31 0 2.20105f
r44 204 205 0.336 
r45 202 204 5.56533 
r46 179 208 6 
r47 205 176 4.95467 
r48 174 176 6 
r49 174 179 1.65857 
r50 171 197 6 
r51 169 193 1.43125 
r52 167 169 6 
r53 167 171 0.518356 
r54 165 187 1.4325 
r55 163 165 6 
r56 163 167 0.516164 
r57 157 159 0.0446983 
r58 157 158 0.2925 
r59 150 158 0.0446983 
r60 150 151 1.63125 
r61 145 208 3.87429 
r62 144 197 0.11625 
r63 143 144 0.0448998 
r64 142 145 0.0456127 
r65 142 143 0.183333 
r66 197 141 1.4375 
r67 99 118 4.4175 
r68 161 99 6 
r69 96 161 1.405 
r70 159 96 0.58875 
r71 96 205 6 
r72 94 155 1.395 
r73 94 204 6 
r74 93 113 4.545 
r75 155 93 6 
r76 151 91 6 
r77 146 89 6 
r78 146 86 2.26 
r79 86 202 6 
r80 84 118 1.3875 
r81 84 85 0.00880368 
r82 82 113 1.27 
r83 82 83 0.00880368 
r84 80 91 0.116143 
r85 80 81 0.0327397 
r86 77 89 0.215 
r87 77 78 0.0302706 
r88 72 73 1.3875 
r89 67 68 1.3625 
r90 66 85 0.0338756 
r91 65 72 0.0446983 
r92 65 66 0.51 
r93 64 83 0.0338756 
r94 63 85 0.0338756 
r95 63 64 0.2325 
r96 62 81 0.00977027 
r97 61 67 0.0448998 
r98 61 62 0.428889 
r99 56 81 0.0327397 
r100 56 57 1.3625 
r101 55 79 0.0338756 
r102 54 83 0.0338756 
r103 54 55 0.51 
r104 49 79 0.00880368 
r105 49 50 2.485 
r106 47 79 0.0338756 
r107 47 48 0.51 
r108 42 48 0.0446983 
r109 42 43 2.485 
r110 37 78 0.0302706 
r111 37 38 2.06 
r112 35 78 0.0119838 
r113 35 36 0.585714 
r114 30 36 0.0449572 
r115 30 31 2.06 
.ends

.subckt PM_PC3B01%CIN 14 19 26 65 117 157
c0 161 0 0.175947f
c1 154 0 0.179764f
c2 145 0 0.161067f
c3 136 0 0.152548f
c4 126 0 0.494705f
c5 120 0 5.80084f
c6 114 0 0.145071f
c7 112 0 0.981285f
c8 110 0 15.8515f
c9 108 0 1.30863f
c10 106 0 7.73349f
c11 104 0 0.0537499f
c12 103 0 4.58311f
c13 102 0 3.25007f
c14 100 0 0.127143f
c15 94 0 1.48265f
c16 91 0 0.0704816f
c17 89 0 0.0403523f
c18 88 0 0.0348746f
c19 86 0 0.0348253f
c20 85 0 1.43553f
c21 83 0 0.224584f
c22 81 0 7.82051f
c23 76 0 0.0932655f
c24 75 0 0.0503498f
c25 72 0 1.36861f
c26 69 0 0.328137f
c27 65 0 0.614557f
c28 61 0 0.0758895f
c29 60 0 0.124685f
c30 59 0 0.0657293f
c31 58 0 0.127927f
c32 57 0 5.22091f
c33 42 0 1.26067f
c34 38 0 0.0360401f
c35 35 0 0.0579649f
c36 30 0 0.415419f
c37 26 0 1.20116f
c38 24 0 0.0608575f
c39 23 0 0.358977f
c40 19 0 1.04109f
c41 14 0 0.656745f
r42 159 161 0.0753623 
r43 154 157 0.0261918 
r44 154 155 0.0513917 
r45 145 150 6 
r46 131 133 4.05 
r47 128 161 6 
r48 150 126 0.241026 
r49 124 126 6 
r50 124 128 4.30286 
r51 120 122 6 
r52 120 124 4.14286 
r53 114 117 0.0261918 
r54 114 154 6 
r55 112 122 1.47429 
r56 133 110 13.1929 
r57 108 110 6 
r58 107 112 0.0446983 
r59 107 108 2.23571 
r60 105 159 0.020058 
r61 105 106 12.1858 
r62 103 106 0.0446983 
r63 103 104 6.85677 
r64 140 102 4.48 
r65 100 102 6 
r66 155 100 0.285714 
r67 98 104 0.0448488 
r68 98 100 0.0371429 
r69 91 140 3 
r70 89 91 0.15 
r71 87 89 0.0446983 
r72 87 88 0.114286 
r73 85 88 0.0446983 
r74 85 86 3.04143 
r75 81 83 6 
r76 80 86 0.0446983 
r77 80 81 14.96 
r78 76 136 6 
r79 75 76 0.124138 
r80 72 131 6 
r81 70 75 0.0447162 
r82 70 72 2.17143 
r83 68 145 0.0666667 
r84 68 69 0.00420241 
r85 67 83 0.231429 
r86 66 136 0.107143 
r87 64 69 0.0398064 
r88 64 65 0.36375 
r89 60 67 0.0446983 
r90 60 61 0.151429 
r91 58 66 0.0446983 
r92 58 59 0.151429 
r93 57 61 0.0446983 
r94 56 59 0.0446983 
r95 56 57 6.87286 
r96 55 65 0.9375 
r97 94 42 6 
r98 94 39 2.06571 
r99 39 133 6 
r100 36 35 0.0789583 
r101 35 42 1.63 
r102 31 38 0.029971 
r103 30 55 0.0450043 
r104 30 31 0.441081 
r105 25 38 0.0122637 
r106 25 26 0.9375 
r107 23 38 0.029971 
r108 23 24 0.441081 
r109 18 24 0.0450043 
r110 18 19 0.9375 
r111 36 14 0.60125 
.ends

.subckt PM_PC3B01%U27_U71_UN_P_TOP 18 37 68 87 118 137 168 187 256 258 265 274
c0 430 0 2.37743f
c1 426 0 0.324866f
c2 424 0 0.325638f
c3 423 0 0.325638f
c4 421 0 0.325638f
c5 420 0 0.31181f
c6 409 0 0.287505f
c7 407 0 15.9185f
c8 402 0 0.309607f
c9 400 0 0.309607f
c10 399 0 0.309607f
c11 397 0 0.309607f
c12 396 0 0.293407f
c13 394 0 0.309998f
c14 393 0 0.309607f
c15 391 0 0.309607f
c16 390 0 0.309862f
c17 387 0 5.84655f
c18 385 0 0.285784f
c19 383 0 6.19724f
c20 381 0 0.33978f
c21 377 0 0.742831f
c22 372 0 5.15195f
c23 369 0 0.135166f
c24 365 0 1.16106f
c25 348 0 6.17057f
c26 347 0 0.0840757f
c27 345 0 1.07529f
c28 335 0 3.55721f
c29 328 0 1.77447f
c30 326 0 0.0870957f
c31 322 0 0.853632f
c32 292 0 0.721286f
c33 289 0 0.467826f
c34 279 0 0.0712025f
c35 274 0 1.35416f
c36 267 0 0.0443925f
c37 266 0 0.161776f
c38 265 0 2.03185f
c39 253 0 5.90676f
c40 251 0 5.0873f
c41 250 0 0.436714f
c42 247 0 0.337763f
c43 221 0 4.93251f
c44 219 0 0.107369f
c45 217 0 0.133146f
c46 172 0 5.00345f
c47 170 0 0.129629f
c48 153 0 4.92536f
c49 151 0 0.105999f
c50 122 0 4.92536f
c51 120 0 0.105999f
c52 103 0 4.92766f
c53 101 0 0.106492f
c54 72 0 4.89703f
c55 70 0 0.105999f
c56 65 0 0.326029f
c57 53 0 4.92057f
c58 51 0 0.105999f
c59 34 0 0.325638f
c60 22 0 4.92536f
c61 20 0 0.105999f
c62 15 0 0.325638f
c63 3 0 4.92536f
c64 1 0 0.105999f
r65 423 424 0.32839 
r66 420 421 0.32839 
r67 407 409 6 
r68 406 407 12.56 
r69 399 400 0.327902 
r70 396 397 0.327902 
r71 393 394 0.327902 
r72 390 391 0.327902 
r73 385 439 0.00129032 
r74 383 385 3 
r75 382 383 4.08645 
r76 381 382 0.0447341 
r77 379 381 0.0961575 
r78 379 409 6 
r79 375 377 6 
r80 372 375 6.12 
r81 366 377 1.09622 
r82 364 365 0.771613 
r83 362 426 0.219024 
r84 424 362 0.160878 
r85 360 362 6 
r86 359 423 0.219024 
r87 421 359 0.160878 
r88 357 359 6 
r89 357 360 0.717037 
r90 356 420 0.219024 
r91 354 356 6 
r92 354 357 0.717037 
r93 351 353 6 
r94 351 354 0.717037 
r95 348 350 6 
r96 348 351 0.717037 
r97 347 365 0.0423631 
r98 347 348 0.128395 
r99 346 439 0.02 
r100 345 364 0.0446983 
r101 345 346 0.614839 
r102 343 402 0.219512 
r103 400 343 0.160878 
r104 341 343 6 
r105 340 399 0.219512 
r106 397 340 0.160878 
r107 338 340 6 