* File: apvda.dist.sp.pex
* Created: Sun Jul  4 12:05:05 2010
* Program "Calibre xRC"
* Version "v2008.4_19.14"
* Nominal Temperature: 27C
* Circuit Temperature: 27C
* 
.subckt PM_APVDA%U30_U29_c2 78 83 168 173 258 263 282 332 337 342 347 352 358
+ 494
c0 507 0 0.779489f
c1 503 0 0.779489f
c2 499 0 0.779489f
c3 494 0 0.327768f
c4 489 0 0.77958f
c5 485 0 0.77958f
c6 468 0 0.515255f
c7 464 0 0.634029f
c8 456 0 0.136393f
c9 454 0 1.4217f
c10 452 0 0.265614f
c11 451 0 0.236432f
c12 449 0 1.00493f
c13 447 0 0.349134f
c14 445 0 3.0961f
c15 443 0 11.5815f
c16 425 0 11.3485f
c17 424 0 1.52149f
c18 421 0 0.515333f
c19 420 0 0.281273f
c20 419 0 1.51526f
c21 415 0 0.054942f
c22 414 0 0.281273f
c23 413 0 1.51531f
c24 409 0 0.515255f
c25 408 0 0.281273f
c26 407 0 1.51526f
c27 403 0 0.0548636f
c28 402 0 0.281273f
c29 401 0 1.51526f
c30 396 0 0.281273f
c31 395 0 1.52261f
c32 391 0 0.178231f
c33 387 0 0.0545501f
c34 385 0 0.0545501f
c35 383 0 0.0546284f
c36 381 0 0.0546284f
c37 379 0 0.0546284f
c38 377 0 0.0575385f
c39 371 0 5.20989f
c40 370 0 0.0484104f
c41 364 0 0.114403f
c42 363 0 0.575355f
c43 362 0 0.114963f
c44 361 0 0.575355f
c45 360 0 0.114963f
c46 359 0 0.52249f
c47 358 0 2.82549f
c48 352 0 2.77447f
c49 347 0 2.77447f
c50 342 0 2.77447f
c51 337 0 2.77447f
c52 332 0 2.82533f
c53 282 0 2.51081f
c54 263 0 2.77447f
c55 262 0 0.114963f
c56 258 0 2.77447f
c57 257 0 0.114963f
c58 173 0 2.77447f
c59 172 0 0.114963f
c60 168 0 2.77447f
c61 167 0 0.114963f
c62 83 0 2.77447f
c63 82 0 0.114963f
c64 78 0 2.77447f
c65 77 0 0.114963f
r66 494 521 3 
r67 491 523 1.5 
r68 489 517 0.219259 
r69 487 489 3 
r70 483 485 3 
r71 478 507 3 
r72 475 503 3 
r73 470 499 3 
r74 468 470 0.0588916 
r75 454 521 0.396129 
r76 452 454 1.5 
r77 451 452 0.0644344 
r78 523 449 0.276615 
r79 447 449 1.5 
r80 446 456 0.00441709 
r81 446 447 0.0552672 
r82 445 451 0.0447032 
r83 444 456 0.0395092 
r84 444 445 1.07023 
r85 443 456 0.0395092 
r86 442 443 3.97862 
r87 440 517 3 
r88 485 438 0.219259 
r89 436 438 3 
r90 436 440 0.662456 
r91 507 435 0.219259 
r92 433 435 3 
r93 433 436 0.663158 
r94 503 432 0.219259 
r95 430 432 3 
r96 430 433 0.662456 
r97 499 428 0.219259 
r98 426 428 3 
r99 426 430 0.662456 
r100 425 442 0.0447338 
r101 425 440 0.47193 
r102 464 424 0.0385542 
r103 421 487 0.0598554 
r104 420 487 0.0457831 
r105 420 421 0.00144578 
r106 421 419 0.0385542 
r107 415 483 0.00771084 
r108 414 483 0.0457831 
r109 414 415 0.00144578 
r110 415 413 0.0385542 
r111 409 478 0.0588916 
r112 408 478 0.046747 
r113 408 409 0.00144578 
r114 409 407 0.0385542 
r115 403 475 0.00674699 
r116 402 475 0.046747 
r117 402 403 0.00144578 
r118 403 401 0.0385542 
r119 396 470 0.046747 
r120 396 468 0.00144578 
r121 468 395 0.0385542 
r122 421 387 0.0385542 
r123 424 387 0.679024 
r124 415 385 0.0385542 
r125 419 385 0.679024 
r126 409 383 0.0385542 
r127 413 383 0.679024 
r128 403 381 0.0385542 
r129 407 381 0.679024 
r130 468 379 0.0385542 
r131 401 379 0.679024 
r132 391 377 0.0385542 
r133 395 377 0.679024 
r134 371 491 0.115702 
r135 370 491 0.564848 
r136 364 464 2.14706 
r137 363 415 5.05882 
r138 362 415 5.05882 
r139 361 403 5.05882 
r140 360 403 5.05882 
r141 359 391 2.14706 
r142 354 364 4.2601 
r143 354 358 229.95 
r144 349 363 4.2601 
r145 349 352 229.95 
r146 344 362 4.2601 
r147 344 347 229.95 
r148 339 361 4.2601 
r149 339 342 229.95 
r150 334 360 4.2601 
r151 334 337 229.95 
r152 329 359 4.2601 
r153 329 332 229.95 
r154 371 287 0.0954001 
r155 287 282 1.9113 
r156 281 370 0.0954001 
r157 281 282 1.9113 
r158 268 421 5.05882 
r159 267 421 5.05882 
r160 262 268 4.2601 
r161 262 263 229.95 
r162 257 267 4.2601 
r163 257 258 229.95 
r164 178 409 5.05882 
r165 177 409 5.05882 
r166 172 178 4.2601 
r167 172 173 229.95 
r168 167 177 4.2601 
r169 167 168 229.95 
r170 88 468 5.05882 
r171 87 468 5.05882 
r172 82 88 4.2601 
r173 82 83 229.95 
r174 77 87 4.2601 
r175 77 78 229.95 
.ends

.subckt PM_APVDA%AVDDO 94 173 302 381 510 589 1649 1894 1899 1902 1908 1911
+ 1918 1922 1945 1960 1974 1984 1988 2001 2012 2018 2024 2030 2036 2042 2048 2050
+ 2073 2081 2107
c0 2110 0 7.5297f
c1 2107 0 58.4971f
c2 2105 0 159.215f
c3 2099 0 6.22773f
c4 2097 0 20.1928f
c5 2085 0 58.7415f
c6 2081 0 35.4643f
c7 2069 0 0.321676f
c8 2066 0 0.245122f
c9 2062 0 1.35776f
c10 2050 0 0.0013388f
c11 2048 0 7.94846f
c12 2042 0 12.944f
c13 2036 0 12.944f
c14 2030 0 12.9496f
c15 2024 0 12.9442f
c16 2018 0 12.9075f
c17 2012 0 7.98741f
c18 2005 0 0.248891f
c19 1996 0 12.9285f
c20 1993 0 0.671208f
c21 1981 0 17.3428f
c22 1980 0 0.172382f
c23 1978 0 1.63307f
c24 1967 0 162.85f
c25 1960 0 22.9263f
c26 1948 0 4.23383f
c27 1945 0 18.2301f
c28 1926 0 15.3407f
c29 1918 0 2.55096f
c30 1908 0 1.69065f
c31 1899 0 11.4065f
c32 1828 0 4.55539f
c33 1827 0 3.96989f
c34 1826 0 7.81243f
c35 1825 0 0.150584f
c36 1649 0 18.7163f
c37 1592 0 6.65858f
c38 1580 0 0.564088f
c39 1551 0 5.73647f
c40 1532 0 0.0828905f
c41 1531 0 2.10952f
c42 1500 0 5.25472f
c43 677 0 0.865399f
c44 657 0 0.620967f
c45 654 0 0.302234f
c46 589 0 3.33866f
c47 533 0 6.9422f
c48 510 0 3.33849f
c49 454 0 6.9422f
c50 387 0 82.006f
c51 381 0 3.33866f
c52 325 0 6.9422f
c53 302 0 3.33866f
c54 246 0 6.9422f
c55 173 0 3.33849f
c56 117 0 6.9422f
c57 94 0 3.33866f
c58 38 0 6.9422f
c59 21 0 0.152029f
c60 20 0 6.78182f
c61 11 0 0.152029f
c62 10 0 6.84484f
r63 2106 2107 0.000593149 
r64 2105 2106 0.0669731 
r65 2101 2102 0.00309784 
r66 2099 2101 0.00314514 
r67 2097 2098 0.118407 
r68 2096 2097 0.118407 
r69 2093 2094 0.118407 
r70 2092 2093 0.118407 
r71 2085 2086 0.0171733 
r72 2102 2084 0.000709429 
r73 2084 2085 0.0164636 
r74 2080 2081 0.00532381 
r75 2079 2080 0.0812857 
r76 2078 2079 0.223095 
r77 2077 2078 0.291381 
r78 2076 2077 0.0127143 
r79 2073 2076 0.0052381 
r80 2067 2069 0.0276554 
r81 2062 2079 0.375 
r82 2059 2062 0.212874 
r83 2052 2101 0.12 
r84 2050 2052 0.024 
r85 2045 2048 0.0369231 
r86 2039 2042 0.0256489 
r87 2033 2036 0.0256489 
r88 2027 2030 0.0256489 
r89 2021 2024 0.0256489 
r90 2021 2086 0.113208 
r91 2015 2018 0.0256489 
r92 2015 2085 0.113208 
r93 2009 2012 0.0369231 
r94 2009 2102 0.113208 
r95 2001 2005 0.0134831 
r96 1998 2096 0.0661022 
r97 2094 1998 0.0523048 
r98 1996 1998 0.016 
r99 1991 1992 0.00490432 
r100 1983 1984 0.00247635 
r101 1982 1983 0.0177472 
r102 2005 1980 3 
r103 1978 1980 3 
r104 1978 1982 0.0520034 
r105 1978 1981 0.099083 
r106 1974 1976 0.188 
r107 1968 2078 0.0190476 
r108 1967 1996 0.0264274 
r109 1967 1968 0.125032 
r110 1965 1967 0.144151 
r111 1965 2099 0.0229885 
r112 2027 1958 0.113208 
r113 2086 1958 0.0171733 
r114 2033 1956 0.113208 
r115 1958 1956 0.0171733 
r116 2039 1954 0.113208 
r117 1956 1954 0.0171733 
r118 2045 1952 0.113208 
r119 1954 1952 0.0171733 
r120 1950 1952 0.113208 
r121 1950 1954 0.113208 
r122 1950 1956 0.113208 
r123 1950 1958 0.113208 
r124 1948 1992 0.00756545 
r125 1944 1945 0.00730249 
r126 1940 2085 0.113208 
r127 1940 1944 0.146856 
r128 1940 2086 0.113208 
r129 1938 1940 0.000474496 
r130 1937 1982 0.0200034 
r131 1937 1938 0.126192 
r132 1993 1935 0.0421171 
r133 1935 1981 2.74454 
r134 1931 2105 0.00162999 
r135 1926 2110 0.000660677 
r136 1926 1931 0.0360262 
r137 1922 1924 0.188 
r138 1916 1918 0.000994191 
r139 1915 1916 0.0533278 
r140 1914 1915 0.0510705 
r141 1911 1914 0.00248963 
r142 1983 1905 0.078125 
r143 1902 1905 0.00116818 
r144 1976 1898 0.5 
r145 1898 1899 0.0039415 
r146 1860 2067 0.2136 
r147 2069 1860 0.1368 
r148 1828 2067 0.2648 
r149 1827 2067 0.2648 
r150 1826 2052 2.167 
r151 1825 2050 2.181 
r152 1824 2066 0.1892 
r153 1823 2067 0.2664 
r154 1649 2059 3.53933 
r155 1608 1609 0.209032 
r156 1594 1596 0.0806452 
r157 1609 1592 0.104516 
r158 1592 1608 0.104516 
r159 1592 1596 0.104516 
r160 1592 1594 0.023871 
r161 1594 1580 0.75 
r162 1992 1580 0.75 
r163 2050 1578 0.159252 
r164 1551 2050 0.159252 
r165 1550 1578 0.19514 
r166 1826 1549 0.045921 
r167 1549 1551 0.19514 
r168 1532 2050 2.11181 
r169 1531 1550 0.0456322 
r170 1531 2050 2.10217 
r171 2050 1527 0.159252 
r172 1500 2050 0.159252 
r173 1499 1532 0.0456322 
r174 1499 1527 0.19514 
r175 1498 1825 0.045921 
r176 1498 1500 0.19514 
r177 681 2077 0.02 
r178 681 682 0.876213 
r179 677 1974 0.202 
r180 677 2080 1.5 
r181 675 1991 0.00192379 
r182 1988 675 0.00406435 
r183 675 1914 0.05 
r184 673 1950 0.000708487 
r185 1948 673 0.0758967 
r186 673 1915 0.00189394 
r187 671 1960 0.00176827 
r188 1950 671 0.0941402 
r189 671 1916 0.05 
r190 682 670 0.723314 
r191 1991 670 0.2 
r192 1905 666 0.0641088 
r193 1938 666 0.00284091 
r194 664 1908 0.0030997 
r195 666 664 0.0625378 
r196 1944 664 0.078125 
r197 1984 661 0.0250387 
r198 661 682 0.2 
r199 660 1898 0.467422 
r200 1894 660 0.00394881 
r201 1924 660 0.5 
r202 657 1922 0.202 
r203 657 2076 1.5 
r204 1890 655 3 
r205 655 2067 0.00385852 
r206 655 2066 0.0559512 
r207 655 654 3 
r208 654 1890 0.0336364 
r209 1993 654 1.5 
r210 2110 652 0.0513311 
r211 649 652 0.0022831 
r212 1931 649 0.0666361 
r213 649 2106 0.00547945 
r214 596 2097 0.0220132 
r215 596 597 0.319822 
r216 589 547 0.00249413 
r217 597 547 0.0425532 
r218 533 589 0.00249413 
r219 597 533 0.0425532 
r220 517 2098 0.0220132 
r221 517 518 0.319822 
r222 510 468 0.00249413 
r223 518 468 0.0425532 
r224 454 510 0.00249413 
r225 518 454 0.0425532 
r226 388 2094 0.0220132 
r227 388 389 0.319822 
r228 387 518 0.345778 
r229 387 597 0.345778 
r230 2107 387 0.0124825 
r231 387 389 0.345778 
r232 381 339 0.00249413 
r233 389 339 0.0425532 
r234 325 381 0.00249413 
r235 389 325 0.0425532 
r236 387 310 0.345778 
r237 309 2096 0.0220132 
r238 309 310 0.319822 
r239 302 260 0.00249413 
r240 310 260 0.0425532 
r241 246 302 0.00249413 
r242 310 246 0.0425532 
r243 387 181 0.345778 
r244 180 2092 0.0220132 
r245 180 181 0.319822 
r246 173 131 0.00249413 
r247 181 131 0.0425532 
r248 117 173 0.00249413 
r249 181 117 0.0425532 
r250 387 102 0.345778 
r251 101 2093 0.0220132 
r252 101 102 0.319822 
r253 94 52 0.00249413 
r254 102 52 0.0425532 
r255 38 94 0.00249413 
r256 102 38 0.0425532 
r257 1828 21 0.0447329 
r258 21 2067 1.51848 
r259 20 1827 0.0447329 
r260 20 2067 1.51162 
r261 1824 11 0.0447329 
r262 11 2067 1.51848 
r263 10 1823 0.0447329 
r264 10 2067 1.51162 
.ends

.subckt PM_APVDA%noxref_3 8 15
c0 14 0 0.710367f
c1 13 0 0.330289f
c2 8 0 0.295845f
r3 14 16 0.02 
r4 13 15 0.0300645 
r5 13 14 0.232258 
r6 16 8 0.0278652 
.ends

.subckt PM_APVDA%U19_U31_r2 413 415 417 419 421 423 425 427 429 431 433 436 465
c0 527 0 0.430177f
c1 526 0 0.430177f
c2 525 0 0.430177f
c3 524 0 0.430177f
c4 523 0 0.430177f
c5 522 0 0.439589f
c6 521 0 0.431045f
c7 520 0 0.430459f
c8 519 0 0.430177f
c9 518 0 0.422103f
c10 515 0 7.45188f
c11 511 0 0.435407f
c12 510 0 0.435407f
c13 509 0 0.435407f
c14 508 0 0.435407f
c15 507 0 0.435407f
c16 506 0 0.444767f
c17 505 0 0.436275f
c18 504 0 0.435689f
c19 503 0 0.435407f
c20 502 0 0.427205f
c21 499 0 7.98818f
c22 497 0 12.8759f
c23 488 0 0.265418f
c24 484 0 0.182816f
c25 483 0 0.0883697f
c26 480 0 1.04435f
c27 475 0 1.0657f
c28 473 0 0.0898436f
c29 468 0 2.17244f
c30 465 0 0.253518f
c31 412 0 4.06306f
c32 400 0 0.110377f
c33 308 0 0.430177f
c34 305 0 0.425861f
c35 277 0 3.8463f
c36 275 0 0.107369f
c37 241 0 3.8463f
c38 239 0 0.107369f
c39 223 0 3.8463f
c40 221 0 0.107369f
c41 187 0 3.8463f
c42 185 0 0.107369f
c43 169 0 3.84918f
c44 167 0 0.108121f
c45 133 0 3.82255f
c46 131 0 0.107369f
c47 115 0 3.84624f
c48 113 0 0.107369f
c49 79 0 3.8468f
c50 77 0 0.107369f
c51 61 0 3.86187f
c52 59 0 0.108314f
c53 25 0 3.84267f
c54 23 0 0.103612f
c55 7 0 4.07988f
c56 5 0 0.130468f
r57 526 527 0.35522 
r58 525 526 0.353073 
r59 524 525 0.35522 
r60 523 524 0.353073 
r61 522 523 0.35522 
r62 521 522 0.353073 
r63 520 521 0.35522 
r64 519 520 0.353073 
r65 518 519 0.35522 
r66 517 518 0.220976 
r67 515 517 0.132098 
r68 510 511 0.277073 
r69 509 510 0.43122 
r70 508 509 0.277073 
r71 507 508 0.43122 
r72 506 507 0.277073 
r73 505 506 0.43122 
r74 504 505 0.277073 
r75 503 504 0.43122 
r76 502 503 0.277073 
r77 501 502 0.217073 
r78 499 501 0.214146 
r79 489 497 5.14121 
r80 488 489 3 
r81 484 497 3 
r82 483 484 0.0438889 
r83 480 517 1.5 
r84 478 483 0.0448083 
r85 478 480 0.695152 
r86 475 501 1.5 
r87 473 488 0.0237629 
r88 473 475 0.700606 
r89 468 513 3 
r90 463 465 3 
r91 463 468 0.472296 
r92 412 436 304.95 
r93 400 436 304.95 
r94 527 308 0.353073 
r95 305 513 0.0478049 
r96 511 305 0.43122 
r97 296 308 3.31176 
r98 412 296 4.2601 
r99 294 305 3.31176 
r100 400 294 4.2601 
r101 278 527 3.31176 
r102 277 433 304.95 
r103 277 278 4.2601 
r104 276 511 3.31176 
r105 275 433 304.95 
r106 275 276 4.2601 
r107 242 526 3.31176 
r108 241 431 304.95 
r109 241 242 4.2601 
r110 240 510 3.31176 
r111 239 431 304.95 
r112 239 240 4.2601 
r113 224 525 3.31176 
r114 223 429 304.95 
r115 223 224 4.2601 
r116 222 509 3.31176 
r117 221 429 304.95 
r118 221 222 4.2601 
r119 188 524 3.31176 
r120 187 427 304.95 
r121 187 188 4.2601 
r122 186 508 3.31176 
r123 185 427 304.95 
r124 185 186 4.2601 
r125 170 523 3.31176 
r126 169 425 304.95 
r127 169 170 4.2601 
r128 168 507 3.31176 
r129 167 425 304.95 
r130 167 168 4.2601 
r131 134 522 3.31176 
r132 133 423 304.95 
r133 133 134 4.2601 
r134 132 506 3.31176 
r135 131 423 304.95 
r136 131 132 4.2601 
r137 116 521 3.31176 
r138 115 421 304.95 
r139 115 116 4.2601 
r140 114 505 3.31176 
r141 113 421 304.95 
r142 113 114 4.2601 
r143 80 520 3.31176 
r144 79 419 304.95 
r145 79 80 4.2601 
r146 78 504 3.31176 
r147 77 419 304.95 
r148 77 78 4.2601 
r149 62 519 3.31176 
r150 61 417 304.95 
r151 61 62 4.2601 
r152 60 503 3.31176 
r153 59 417 304.95 
r154 59 60 4.2601 
r155 26 518 3.31176 
r156 25 415 304.95 
r157 25 26 4.2601 
r158 24 502 3.31176 
r159 23 415 304.95 
r160 23 24 4.2601 
r161 8 515 3.31176 
r162 7 413 304.95 
r163 7 8 4.2601 
r164 6 499 3.31176 
r165 5 413 304.95 
r166 5 6 4.2601 
.ends

.subckt PM_APVDA%noxref_5 8 15
c0 14 0 0.639789f
c1 13 0 0.311803f
c2 8 0 0.274668f
r3 14 16 0.02 
r4 13 15 0.0300645 
r5 13 14 0.232258 
r6 16 8 0.0278652 
.ends

.subckt PM_APVDA%AVSSO 177 340 503 688 693 698 703 708 713 718 723 728 1270
+ 1283 1289 1292 1298 1302 1354 1359 1373 1388 1390 1395 1400 1405 1410 1415 1420
+ 1434 1443 1458 1474 1483 1496
c0 1530 0 2.73864f
c1 1528 0 7.18661f
c2 1522 0 7.18661f
c3 1517 0 7.18661f
c4 1511 0 7.18661f
c5 1506 0 7.18661f
c6 1496 0 33.0482f
c7 1482 0 4.66234f
c8 1478 0 3.18434f
c9 1469 0 9.05874f
c10 1463 0 3.34554f
c11 1458 0 15.7057f
c12 1429 0 3.7321f
c13 1420 0 1.14196f
c14 1415 0 1.14088f
c15 1410 0 1.14088f
c16 1405 0 1.15422f
c17 1400 0 1.14088f
c18 1395 0 1.15807f
c19 1388 0 8.25608e-19
c20 1386 0 9.06265f
c21 1383 0 3.78448f
c22 1373 0 1.95023f
c23 1372 0 55.9207f
c24 1369 0 0.158902f
c25 1365 0 2.73353f
c26 1358 0 2.28735f
c27 1352 0 0.860693f
c28 1350 0 8.40737f
c29 1348 0 7.88701f
c30 1344 0 0.801121f
c31 1337 0 13.6107f
c32 1333 0 2.65415f
c33 1328 0 12.5831f
c34 1300 0 0.872162f
c35 1298 0 27.2087f
c36 1289 0 10.5935f
c37 1277 0 0.820069f
c38 1276 0 0.844081f
c39 1270 0 0.260738f
c40 1267 0 0.813998f
c41 1264 0 12.0349f
c42 1261 0 12.0349f
c43 1258 0 12.0384f
c44 1255 0 12.0672f
c45 1252 0 12.0349f
c46 1250 0 10.2532f
c47 1247 0 12.13f
c48 1245 0 1.67983f
c49 1228 0 10.5549f
c50 1223 0 1.7551f
c51 1221 0 1.44351f
c52 1214 0 0.718873f
c53 1213 0 0.135225f
c54 1211 0 0.135225f
c55 1210 0 3.21227f
c56 1208 0 0.39646f
c57 1207 0 0.72374f
c58 1206 0 3.22613f
c59 1205 0 0.396721f
c60 1202 0 0.974712f
c61 1198 0 0.624753f
c62 1135 0 9.81184f
c63 1132 0 7.03489f
c64 1131 0 0.404029f
c65 1129 0 1.78101f
c66 1120 0 3.2622f
c67 1109 0 0.146306f
c68 1108 0 0.446743f
c69 885 0 6.65343f
c70 884 0 0.29225f
c71 883 0 9.27086f
c72 763 0 0.269618f
c73 762 0 5.28888f
c74 728 0 2.46755f
c75 723 0 1.75966f
c76 718 0 1.79525f
c77 713 0 1.79485f
c78 708 0 1.7458f
c79 703 0 1.74705f
c80 698 0 1.74705f
c81 693 0 1.74705f
c82 688 0 1.97364f
c83 548 0 6.78063f
c84 535 0 2.72946f
c85 529 0 2.29401f
c86 528 0 0.827543f
c87 418 0 13.9208f
c88 368 0 13.9208f
c89 357 0 4.71746f
c90 255 0 13.9208f
c91 205 0 13.9208f
c92 42 0 13.9208f
c93 20 0 0.42422f
c94 19 0 0.146306f
c95 10 0 0.364849f
r96 1493 1494 0.0305882 
r97 1492 1493 0.0490909 
r98 1491 1492 0.109091 
r99 1490 1491 0.278182 
r100 1489 1490 0.13016 
r101 1488 1489 0.0609626 
r102 1487 1488 0.000320856 
r103 1481 1482 0.0227184 
r104 1478 1494 0.136364 
r105 1473 1474 0.0126606 
r106 1530 1471 0.0120681 
r107 1469 1471 0.0638298 
r108 1462 1463 0.0551111 
r109 1461 1462 0.0497778 
r110 1460 1461 0.0497778 
r111 1459 1460 0.0497778 
r112 1458 1459 0.0339556 
r113 1456 1458 0.0145778 
r114 1456 1491 0.0714286 
r115 1454 1456 0.00124444 
r116 1453 1454 0.0497778 
r117 1452 1453 0.0497778 
r118 1451 1452 0.0497778 
r119 1449 1451 0.0551111 
r120 1428 1429 0.0899598 
r121 1427 1428 0.0899598 
r122 1426 1427 0.0899598 
r123 1424 1426 0.0257028 
r124 1424 1490 0.0714286 
r125 1388 1473 0.013211 
r126 1469 1388 0.00954128 
r127 1386 1388 0.00821918 
r128 1386 1481 0.0638298 
r129 1383 1488 0.136364 
r130 1365 1481 0.0120388 
r131 1363 1365 0.0327869 
r132 1362 1363 0.0234386 
r133 1361 1362 0.000421053 
r134 1358 1361 0.00701754 
r135 1358 1359 0.02 
r136 1352 1354 0.259 
r137 1348 1350 1.5 
r138 1347 1369 0.0200172 
r139 1347 1348 3.22519 
r140 1344 1493 0.375 
r141 1342 1369 0.121202 
r142 1342 1344 0.222105 
r143 1337 1340 1.82667 
r144 1337 1492 0.2 
r145 1331 1333 1 
r146 1331 1334 0.0708571 
r147 1328 1331 1.76 
r148 1328 1489 0.2 
r149 1324 1530 0.0327869 
r150 1372 1324 0.00875609 
r151 1524 1323 0.00295856 
r152 1323 1528 0.00296109 
r153 1321 1323 0.0266667 
r154 1321 1324 0.0245274 
r155 1443 1320 0.130435 
r156 1320 1522 0.00296109 
r157 1519 1320 0.00296109 
r158 1318 1320 0.0266667 
r159 1318 1321 0.0245274 
r160 1513 1317 0.00295856 
r161 1317 1517 0.00296109 
r162 1315 1317 0.0266667 
r163 1315 1318 0.0245274 
r164 1314 1315 0.00124716 
r165 1434 1313 0.130435 
r166 1313 1511 0.00296109 
r167 1508 1313 0.00296109 
r168 1311 1313 0.0266667 
r169 1311 1314 0.0232803 
r170 1502 1310 0.00295856 
r171 1310 1506 0.00296109 
r172 1308 1310 0.0266667 
r173 1308 1311 0.0245274 
r174 1307 1362 0.02 
r175 1307 1308 0.0280091 
r176 1300 1302 0.286 
r177 1296 1298 0.00282778 
r178 1295 1296 0.355222 
r179 1292 1295 0.00305556 
r180 1288 1289 0.000729721 
r181 1314 1287 0.00151515 
r182 1287 1288 0.0415518 
r183 1282 1350 3.06456 
r184 1268 1270 3 
r185 1267 1282 0.0447227 
r186 1267 1268 0.1225 
r187 1266 1277 0.000514688 
r188 1420 1264 0.432326 
r189 1262 1264 0.6 
r190 1415 1261 0.432326 
r191 1259 1261 0.6 
r192 1259 1262 0.279231 
r193 1410 1258 0.432326 
r194 1256 1258 0.6 
r195 1256 1259 0.279231 
r196 1405 1255 0.432326 
r197 1253 1255 0.6 
r198 1253 1256 0.279231 
r199 1400 1252 0.432326 
r200 1250 1252 0.6 
r201 1250 1253 0.279231 
r202 1249 1277 0.0468981 
r203 1249 1250 0.0942308 
r204 1395 1247 0.432326 
r205 1245 1247 0.6 
r206 1244 1277 0.0468981 
r207 1244 1245 0.0646154 
r208 1242 1420 0.433488 
r209 1240 1242 0.6 
r210 1239 1415 0.433488 
r211 1237 1239 0.6 
r212 1237 1240 0.273962 
r213 1236 1410 0.433488 
r214 1234 1236 0.6 
r215 1234 1237 0.273962 
r216 1233 1405 0.433488 
r217 1231 1233 0.6 
r218 1231 1234 0.273962 
r219 1230 1400 0.433488 
r220 1228 1230 0.6 
r221 1228 1231 0.273962 
r222 1227 1276 0.0462255 
r223 1227 1228 0.0924528 
r224 1225 1395 0.433488 
r225 1223 1225 0.6 
r226 1222 1276 0.0462255 
r227 1222 1223 0.0633962 
r228 1221 1276 9.78426e-05 
r229 1216 1474 0.230275 
r230 1214 1469 0.201651 
r231 1212 1424 0.0481928 
r232 1212 1213 0.0148221 
r233 1209 1390 0.229041 
r234 1209 1210 0.0863581 
r235 1207 1386 0.201826 
r236 1207 1208 0.0863581 
r237 1216 1206 0.0861375 
r238 1214 1205 0.0861375 
r239 1203 1211 0.0148221 
r240 1203 1204 0.0627237 
r241 1202 1213 0.0148221 
r242 1202 1204 0.0627237 
r243 1199 1201 0.0899598 
r244 1198 1211 0.0148221 
r245 1198 1201 0.0738956 
r246 1137 1213 0.0316147 
r247 1136 1211 0.0316147 
r248 1135 1388 0.126 
r249 1132 1388 0.126 
r250 1131 1478 0.125627 
r251 1130 1478 0.329541 
r252 1129 1463 0.02 
r253 1124 1458 0.30632 
r254 1124 1454 0.02 
r255 1120 1449 0.02 
r256 1119 1429 0.02 
r257 1118 1428 0.02 
r258 1117 1427 0.02 
r259 1116 1426 0.02 
r260 1115 1204 0.02 
r261 1114 1201 0.02 
r262 1113 1199 0.02 
r263 1112 1388 0.128 
r264 1111 1388 0.128 
r265 1109 1111 0.0473573 
r266 1109 1208 0.250407 
r267 1108 1383 0.126361 
r268 1107 1383 0.328807 
r269 1131 893 0.0923344 
r270 1108 892 0.0923344 
r271 886 892 0.0221996 
r272 886 887 1.28311 
r273 885 893 0.0221996 
r274 885 887 1.31511 
r275 1107 884 0.0705934 
r276 883 1130 0.0705934 
r277 883 884 5.846 
r278 869 1120 0.5605 
r279 796 1129 0.5605 
r280 792 1462 0.02 
r281 792 1458 0.30632 
r282 788 1461 0.02 
r283 788 1458 0.30632 
r284 784 1460 0.02 
r285 784 1458 0.30632 
r286 780 1459 0.02 
r287 780 1458 0.30632 
r288 772 1453 0.02 
r289 772 1458 0.30632 
r290 768 1452 0.02 
r291 768 1458 0.30632 
r292 764 1451 0.02 
r293 764 1458 0.30632 
r294 869 763 0.0446983 
r295 762 796 0.0446983 
r296 762 763 1.21 
r297 1113 728 0.35928 
r298 1114 723 0.35928 
r299 1136 718 0.35288 
r300 1115 713 0.35288 
r301 1137 708 0.35288 
r302 1116 703 0.35928 
r303 1117 698 0.35928 
r304 1118 693 0.35928 
r305 1119 688 0.35928 
r306 559 1373 0.00145944 
r307 559 1372 0.000589933 
r308 559 1288 0.0378788 
r309 558 1287 0.0392177 
r310 1283 558 0.00185957 
r311 1361 558 0.0378788 
r312 1354 555 0.396 
r313 555 1296 0.357143 
r314 554 1496 0.00544385 
r315 1494 554 0.0106952 
r316 1352 554 1 
r317 548 1487 0.666667 
r318 1363 546 0.43919 
r319 546 548 1.54097 
r320 1302 544 0.357 
r321 544 1295 0.357143 
r322 543 1487 0.0147594 
r323 1483 543 0.00588235 
r324 1300 543 1 
r325 1340 535 0.5 
r326 1218 533 0.215238 
r327 1333 533 0.0708571 
r328 1334 533 1 
r329 531 535 0.217905 
r330 529 1266 0.0892013 
r331 529 531 0.0469908 
r332 528 1221 0.0884345 
r333 528 1218 0.0469908 
r334 1323 503 0.130435 
r335 1443 418 0.00313778 
r336 1522 418 0.0652174 
r337 503 408 0.0031351 
r338 1524 408 0.0652174 
r339 368 503 0.00314046 
r340 1528 368 0.0652174 
r341 1471 357 0.0241363 
r342 357 1473 0.0652174 
r343 1317 340 0.130435 
r344 1434 255 0.00313778 
r345 1511 255 0.0652174 
r346 340 245 0.0031351 
r347 1513 245 0.0652174 
r348 205 340 0.00314046 
r349 1517 205 0.0652174 
r350 195 1443 0.00313778 
r351 1519 195 0.0652174 
r352 1310 177 0.130435 
r353 92 1390 0.0126027 
r354 1388 92 0.0131507 
r355 1482 92 0.0652174 
r356 177 82 0.0031351 
r357 1502 82 0.0652174 
r358 42 177 0.00314046 
r359 1506 42 0.0652174 
r360 32 1434 0.00313778 
r361 1508 32 0.0652174 
r362 20 1206 0.132033 
r363 1135 20 0.0473573 
r364 19 1205 0.250407 
r365 19 1132 0.0473573 
r366 10 1210 0.132033 
r367 1112 10 0.0473573 
.ends

.subckt PM_APVDA%AVSS 597 612 615 621 625 643
c0 641 0 0.506994f
c1 636 0 14.249f
c2 630 0 13.728f
c3 623 0 0.827673f
c4 621 0 44.6263f
c5 612 0 7.13333f
c6 611 0 21.3114f
c7 594 0 9.80898f
c8 548 0 0.39459f
c9 546 0 0.402871f
c10 540 0 0.108058f
c11 539 0 0.106426f
c12 538 0 0.142394f
c13 537 0 0.133009f
c14 509 0 5.93145f
c15 505 0 1.03662f
c16 503 0 0.877632f
c17 475 0 6.57523f
c18 471 0 7.35578f
c19 440 0 7.22696f
c20 437 0 0.122725f
c21 436 0 0.708936f
c22 435 0 0.111123f
c23 434 0 0.811408f
c24 433 0 6.1667f
c25 21 0 7.49346f
r26 651 652 0.914495 
r27 641 643 0.0755 
r28 636 639 2.00436 
r29 636 652 0.75 
r30 630 633 1.95254 
r31 630 651 0.75 
r32 623 625 0.132 
r33 619 621 0.00164455 
r34 618 619 0.195027 
r35 615 618 0.0016476 
r36 611 652 0.174679 
r37 649 607 2.80195 
r38 602 649 0.842927 
r39 594 607 0.546341 
r40 593 602 0.522927 
r41 548 607 2 
r42 639 548 2 
r43 546 602 2 
r44 633 546 2 
r45 594 539 0.0420172 
r46 593 537 0.0517786 
r47 649 536 0.149647 
r48 509 649 0.149647 
r49 508 536 0.490353 
r50 507 509 0.487529 
r51 506 540 0.0412274 
r52 505 508 0.0447003 
r53 505 506 0.611429 
r54 504 539 0.0420172 
r55 503 507 0.0447171 
r56 503 504 0.626341 
r57 649 502 0.159252 
r58 475 649 0.159252 
r59 474 540 0.00319614 
r60 474 502 0.349159 
r61 473 539 0.00265108 
r62 473 475 0.346916 
r63 472 538 0.0508751 
r64 471 540 0.0412274 
r65 471 472 4.6019 
r66 649 467 0.122553 
r67 440 649 0.122553 
r68 439 538 0.00286573 
r69 439 467 0.263262 
r70 438 537 0.00337442 
r71 438 440 0.26156 
r72 436 538 0.0508751 
r73 436 437 0.579048 
r74 434 537 0.0517786 
r75 434 435 0.593171 
r76 433 437 0.0447003 
r77 432 435 0.0447171 
r78 432 433 4.69365 
r79 643 29 0.0765 
r80 29 619 0.357143 
r81 28 612 0.00437886 
r82 28 611 0.0919537 
r83 641 28 0.857143 
r84 625 25 0.008 
r85 25 618 0.357143 
r86 623 24 0.857143 
r87 22 651 0.172599 
r88 22 24 0.0340229 
r89 21 597 0.0173663 
r90 21 24 0.0166651 
.ends

.subckt PM_APVDA%VSS 91 96 101 106 111 116 121 126 131 234 267 284 288 295
c0 295 0 53.7463f
c1 284 0 0.966768f
c2 277 0 1.07751f
c3 272 0 1.11045f
c4 266 0 1.37535f
c5 265 0 2.38912f
c6 234 0 1.24866f
c7 227 0 26.7992f
c8 223 0 0.159929f
c9 220 0 10.3314f
c10 219 0 24.9096f
c11 217 0 5.52667f
c12 213 0 0.613186f
c13 212 0 3.90819f
c14 131 0 0.145467f
c15 126 0 0.145467f
c16 121 0 2.09166f
c17 116 0 0.143573f
c18 111 0 2.04432f
c19 106 0 0.145467f
c20 101 0 0.145467f
c21 96 0 0.145467f
c22 91 0 0.145467f
c23 27 0 0.23417f
c24 26 0 4.96429f
r25 292 293 0.105506 
r26 291 292 0.0222353 
r27 288 291 0.00127059 
r28 284 286 0.309 
r29 280 293 0.125 
r30 277 280 0.0290749 
r31 272 275 0.0286974 
r32 272 292 0.104167 
r33 266 267 0.02 
r34 252 253 0.300779 
r35 248 253 0.0833333 
r36 246 248 0.0064257 
r37 245 246 0.0899598 
r38 244 245 0.0899598 
r39 242 244 0.0899598 
r40 240 241 0.0497778 
r41 239 240 0.0497778 
r42 237 239 0.0110222 
r43 237 252 0.0833333 
r44 235 237 0.0387556 
r45 234 235 0.0158222 
r46 233 234 0.0339556 
r47 232 233 0.0497778 
r48 231 232 0.0497778 
r49 230 231 0.0497778 
r50 228 230 0.0551111 
r51 253 227 0.14026 
r52 277 227 0.2 
r53 225 252 0.154935 
r54 275 225 0.171429 
r55 221 220 0.0155642 
r56 220 248 0.0674699 
r57 219 241 0.0408889 
r58 216 217 0.0899598 
r59 215 223 0.0148221 
r60 215 216 0.0738956 
r61 213 221 0.0644358 
r62 213 214 0.0227237 
r63 212 223 0.0148221 
r64 212 214 0.0627237 
r65 211 265 0.5605 
r66 211 219 0.0593156 
r67 210 221 0.02 
r68 209 217 0.02 
r69 208 216 0.02 
r70 207 214 0.02 
r71 206 246 0.02 
r72 205 245 0.02 
r73 204 244 0.02 
r74 203 242 0.02 
r75 199 234 0.30632 
r76 199 239 0.02 
r77 198 234 0.30632 
r78 198 235 0.02 
r79 193 228 0.02 
r80 209 131 0.35928 
r81 208 126 0.35928 
r82 120 223 0.0316147 
r83 120 121 0.35288 
r84 207 116 0.35288 
r85 210 111 0.35288 
r86 206 106 0.35928 
r87 205 101 0.35928 
r88 204 96 0.35928 
r89 203 91 0.35928 
r90 60 193 0.5605 
r91 56 230 0.02 
r92 56 234 0.30632 
r93 52 231 0.02 
r94 52 234 0.30632 
r95 48 232 0.02 
r96 48 234 0.30632 
r97 44 233 0.02 
r98 44 234 0.30632 
r99 32 240 0.02 
r100 32 234 0.30632 
r101 28 241 0.02 
r102 28 234 0.30632 
r103 265 27 0.0446983 
r104 26 60 0.0446983 
r105 26 27 1.21 
r106 4 295 0.00126824 
r107 293 4 0.0226588 
r108 286 4 0.25 
r109 266 1 0.297 
r110 1 291 0.25 
.ends

.subckt PM_APVDA%AVDD 17 22 25 31 33 39
c0 39 0 2.33709f
c1 33 0 1.67483f
c2 31 0 97.364f
c3 22 0 48.6567f
r4 29 31 0.00069414 
r5 28 29 0.0822923 
r6 25 28 0.000721185 
r7 7 43 0.141 
r8 39 7 0.2255 
r9 7 29 0.0925926 
r10 6 22 0.00414572 
r11 43 6 0.6 
r12 3 37 0.105 
r13 33 3 0.2245 
r14 3 28 0.0925926 
r15 2 6 0.465355 
r16 17 2 0.00408015 
r17 37 2 0.6 
.ends

