* File: pc3c03.dist.sp.pex
* Created: Sun Jul  4 12:22:53 2010
* Program "Calibre xRC"
* Version "v2008.4_19.14"
* Nominal Temperature: 27C
* Circuit Temperature: 27C
* 
.subckt PM_PC3C03%CCLK 63 65 138 140 213 215 288 290 365 367 369 371 373 375
+ 377 379 391 437 454
c0 451 0 9.42457f
c1 449 0 6.18756f
c2 432 0 0.110005f
c3 426 0 0.166113f
c4 424 0 6.54492f
c5 418 0 2.64525f
c6 412 0 2.59645f
c7 406 0 2.59645f
c8 400 0 2.64325f
c9 398 0 2.05419f
c10 396 0 1.16159f
c11 391 0 0.148263f
c12 379 0 1.68501f
c13 377 0 1.61545f
c14 375 0 1.61544f
c15 373 0 1.61544f
c16 371 0 1.61544f
c17 369 0 1.61544f
c18 367 0 1.61545f
c19 365 0 1.68501f
c20 298 0 0.256031f
c21 290 0 0.775401f
c22 288 0 0.733706f
c23 257 0 0.523281f
c24 255 0 3.14526f
c25 253 0 0.137107f
c26 223 0 0.255489f
c27 215 0 0.744613f
c28 213 0 0.733706f
c29 182 0 0.523037f
c30 178 0 0.138842f
c31 148 0 0.255489f
c32 140 0 0.744613f
c33 138 0 0.733706f
c34 107 0 0.523037f
c35 103 0 0.138842f
c36 73 0 0.25603f
c37 65 0 0.74461f
c38 63 0 0.762682f
c39 32 0 0.524772f
c40 28 0 0.137097f
r41 448 449 0.944 
r42 447 448 0.944 
r43 446 447 0.944 
r44 443 446 2.354 
r45 434 454 0.0556364 
r46 451 434 6.25697 
r47 432 434 6 
r48 432 437 0.0556364 
r49 429 451 6 
r50 443 426 6 
r51 426 458 0.0534859 
r52 424 426 6 
r53 424 429 4.20242 
r54 421 422 1.058 
r55 415 416 1.058 
r56 409 410 1.058 
r57 403 404 1.058 
r58 396 398 6 
r59 458 396 1.402 
r60 390 398 2.73 
r61 390 391 0.053452 
r62 278 290 85 
r63 274 288 85 
r64 273 379 197.5 
r65 298 272 9.36508 
r66 272 273 1.70635 
r67 269 377 197.5 
r68 268 298 9.36508 
r69 268 269 1.70635 
r70 258 421 0.466 
r71 418 258 1.448 
r72 258 449 6 
r73 257 278 7.56466 
r74 274 257 7.69397 
r75 418 257 6 
r76 421 255 6 
r77 253 298 0.034 
r78 422 253 6 
r79 203 215 85 
r80 199 213 85 
r81 198 375 197.5 
r82 223 197 9.36508 
r83 197 198 1.70635 
r84 194 373 197.5 
r85 193 223 9.36508 
r86 193 194 1.70635 
r87 183 415 0.466 
r88 412 183 1.448 
r89 183 448 6 
r90 182 203 7.56466 
r91 199 182 7.69397 
r92 412 182 6 
r93 180 255 1.18 
r94 415 180 6 
r95 178 223 0.034 
r96 416 178 6 
r97 128 140 85 
r98 124 138 85 
r99 123 371 197.5 
r100 148 122 9.36508 
r101 122 123 1.70635 
r102 119 369 197.5 
r103 118 148 9.36508 
r104 118 119 1.70635 
r105 108 409 0.466 
r106 406 108 1.448 
r107 108 447 6 
r108 107 128 7.56466 
r109 124 107 7.69397 
r110 406 107 6 
r111 105 180 1.18 
r112 409 105 6 
r113 103 148 0.034 
r114 410 103 6 
r115 53 65 85 
r116 49 63 85 
r117 48 367 197.5 
r118 73 47 9.36508 
r119 47 48 1.70635 
r120 44 365 197.5 
r121 43 73 9.36508 
r122 43 44 1.70635 
r123 33 403 0.466 
r124 400 33 1.448 
r125 33 446 6 
r126 32 53 7.56466 
r127 49 32 7.69397 
r128 400 32 6 
r129 30 105 1.18 
r130 403 30 6 
r131 28 73 0.034 
r132 404 28 6 
.ends

.subckt PM_PC3C03%VSS 590 595 598 603 606 611 614 619 624 738 742 748 774 778
+ 781 784 787 792 795 798 801 803 809 815 821
c0 821 0 74.9772f
c1 809 0 1.31546f
c2 803 0 5.70554f
c3 801 0 0.0174348f
c4 798 0 0.0227087f
c5 795 0 0.0174348f
c6 792 0 0.0227087f
c7 787 0 0.0174348f
c8 784 0 0.0227087f
c9 781 0 0.0174348f
c10 778 0 0.0196406f
c11 774 0 8.92782f
c12 745 0 0.916298f
c13 735 0 1.3852f
c14 730 0 7.89977f
c15 722 0 1.16886f
c16 719 0 1.1318f
c17 716 0 1.13696f
c18 713 0 1.1318f
c19 707 0 1.13696f
c20 704 0 1.1318f
c21 701 0 1.137f
c22 698 0 1.17595f
c23 694 0 29.9725f
c24 690 0 9.93332f
c25 689 0 2.69597f
c26 685 0 2.15107f
c27 646 0 20.9702f
c28 644 0 0.233073f
c29 640 0 12.6986f
c30 639 0 0.233714f
c31 638 0 5.38684f
c32 634 0 10.0618f
c33 633 0 4.46774f
c34 630 0 21.0217f
c35 629 0 2.58518f
c36 628 0 5.40246f
c37 624 0 1.6428f
c38 621 0 3.88358f
c39 619 0 2.01724f
c40 614 0 2.04821f
c41 611 0 2.01724f
c42 606 0 2.04773f
c43 603 0 2.01724f
c44 598 0 2.04773f
c45 595 0 2.01724f
c46 590 0 1.66236f
c47 584 0 2.58518f
c48 583 0 8.52919f
c49 581 0 3.15046f
c50 580 0 2.33147f
c51 578 0 2.73276f
c52 577 0 1.72503f
c53 576 0 27.5305f
c54 575 0 2.5377f
c55 574 0 12.8112f
c56 573 0 0.190476f
c57 572 0 0.469584f
c58 570 0 10.6649f
c59 568 0 2.03243f
c60 567 0 2.35379f
c61 566 0 0.202358f
c62 179 0 1.24937f
c63 174 0 25.2537f
c64 150 0 6.17108f
c65 142 0 0.163011f
c66 141 0 9.28609f
c67 134 0 0.0965554f
c68 23 0 3.72364f
c69 21 0 1.75766f
c70 18 0 3.78797f
r71 819 821 0.0004676 
r72 818 819 0.0834907 
r73 815 818 0.000703354 
r74 809 812 0.00176944 
r75 809 811 0.0661546 
r76 802 803 0.081 
r77 812 752 0.00605898 
r78 750 752 0.428571 
r79 748 750 0.24 
r80 745 748 0.0165079 
r81 745 819 0.131579 
r82 740 742 0.428571 
r83 738 740 0.189 
r84 735 738 0.013 
r85 735 818 0.131579 
r86 774 732 0.0357309 
r87 730 732 0.04 
r88 811 730 0.423016 
r89 803 727 1.07 
r90 722 801 1.08 
r91 720 722 6 
r92 720 723 0.111505 
r93 719 798 1.08 
r94 717 719 6 
r95 717 720 0.0188235 
r96 716 795 1.08 
r97 714 716 6 
r98 714 717 0.0188235 
r99 713 792 1.08 
r100 711 713 6 
r101 711 714 0.0188235 
r102 803 710 0.0395 
r103 708 710 0.0196078 
r104 708 711 0.00494516 
r105 707 787 1.08 
r106 705 707 6 
r107 705 708 0.0138784 
r108 704 784 1.08 
r109 702 704 6 
r110 702 705 0.0188235 
r111 701 781 1.08 
r112 699 701 6 
r113 699 702 0.0188235 
r114 698 778 1.08 
r115 696 698 6 
r116 696 699 0.0188235 
r117 695 742 0.0230601 
r118 695 696 0.142532 
r119 694 812 0.02 
r120 694 723 0.0219342 
r121 774 692 0.0357309 
r122 690 692 0.04 
r123 689 742 0.0340795 
r124 689 690 0.469897 
r125 688 732 0.0464965 
r126 687 774 0.0811137 
r127 685 710 0.961 
r128 683 801 1.64 
r129 682 683 0.02 
r130 681 798 1.64 
r131 680 682 0.0515847 
r132 680 681 0.02 
r133 679 795 1.64 
r134 678 680 0.0515847 
r135 678 679 0.02 
r136 673 792 1.64 
r137 672 803 0.000655738 
r138 672 673 0.02 
r139 671 787 1.64 
r140 670 672 0.0515847 
r141 670 671 0.02 
r142 669 784 1.64 
r143 668 670 0.0515847 
r144 668 669 0.02 
r145 667 781 1.64 
r146 666 668 0.0515847 
r147 666 667 0.02 
r148 665 778 1.64 
r149 664 666 0.0515847 
r150 664 665 0.02 
r151 659 774 0.00728461 
r152 658 659 0.0220406 
r153 657 658 0.0220406 
r154 774 657 0.0136353 
r155 655 774 0.00840532 
r156 654 655 0.0220406 
r157 653 654 0.0220406 
r158 774 653 0.0125146 
r159 651 774 0.00952603 
r160 650 651 0.0220406 
r161 649 650 0.0220406 
r162 774 649 0.0113939 
r163 646 774 0.0337147 
r164 644 803 0.9825 
r165 643 692 0.0464965 
r166 642 774 0.0811137 
r167 639 685 0.0666177 
r168 639 640 0.0511528 
r169 638 641 0.0448283 
r170 638 640 0.0926542 
r171 634 774 0.0459289 
r172 633 687 0.0447463 
r173 633 774 0.0304053 
r174 634 630 0.0041621 
r175 630 774 0.00594332 
r176 629 630 0.00435556 
r177 628 688 0.0447254 
r178 628 774 0.0302222 
r179 659 624 2.1975 
r180 621 682 0.00349727 
r181 658 619 2.1975 
r182 657 614 2.1975 
r183 655 611 2.1975 
r184 654 606 2.1975 
r185 653 603 2.1975 
r186 651 598 2.1975 
r187 650 595 2.1975 
r188 649 590 2.1975 
r189 774 585 0.0795429 
r190 646 584 0.0307419 
r191 584 585 0.00297143 
r192 629 583 0.0441641 
r193 583 774 0.0064 
r194 581 643 0.0447254 
r195 581 774 0.0275556 
r196 580 646 0.0134222 
r197 580 774 0.0195556 
r198 578 642 0.0447463 
r199 578 774 0.0265498 
r200 577 646 0.0104415 
r201 577 774 0.0193209 
r202 576 678 0.0507104 
r203 803 576 0.000218579 
r204 621 576 0.236066 
r205 575 664 0.00349727 
r206 575 576 0.226448 
r207 573 574 0.0911528 
r208 572 644 0.0666177 
r209 572 574 0.0526542 
r210 571 573 0.0448283 
r211 570 727 0.416 
r212 568 576 0.0386885 
r213 567 576 0.0502732 
r214 566 802 1.5225 
r215 179 727 0.5 
r216 177 179 0.5 
r217 174 177 0.947668 
r218 174 723 0.0909091 
r219 803 150 0.36 
r220 149 803 0.3 
r221 570 148 0.0446983 
r222 148 150 0.3145 
r223 142 803 1.53854 
r224 141 149 0.0447072 
r225 141 803 1.4761 
r226 135 142 0.0447072 
r227 135 803 0.3 
r228 134 803 0.0885 
r229 132 134 0.04 
r230 132 803 0.229814 
r231 131 566 0.0446989 
r232 131 803 0.312547 
r233 23 641 0.322146 
r234 21 23 0.112074 
r235 568 21 0.0567627 
r236 21 640 0.0209809 
r237 567 19 0.0581769 
r238 19 574 0.0209855 
r239 18 571 0.322146 
r240 18 19 0.110867 
.ends

.subckt PM_PC3C03%VDD 288 300 305 312 317 324 329 336 341 349 354 363 368 375
+ 380 387 392 398 435 445 496 504 512 515 521
c0 521 0 86.8293f
c1 512 0 38.8577f
c2 498 0 28.6737f
c3 492 0 9.08866f
c4 490 0 6.13949f
c5 487 0 6.2597f
c6 445 0 1.43041f
c7 435 0 1.53395f
c8 426 0 31.6784f
c9 425 0 0.0703214f
c10 424 0 0.0775907f
c11 423 0 0.0745806f
c12 422 0 0.0775907f
c13 421 0 0.0745806f
c14 420 0 0.0775907f
c15 419 0 0.0745806f
c16 418 0 0.0733316f
c17 405 0 32.0308f
c18 402 0 8.80613f
c19 398 0 3.57703f
c20 392 0 1.7885f
c21 387 0 4.55206f
c22 384 0 0.347475f
c23 380 0 1.78647f
c24 375 0 4.53975f
c25 372 0 0.292635f
c26 368 0 1.78647f
c27 363 0 4.65615f
c28 358 0 0.347475f
c29 354 0 1.78647f
c30 349 0 5.28448f
c31 345 0 0.292635f
c32 341 0 1.78647f
c33 336 0 4.65631f
c34 333 0 0.347475f
c35 329 0 1.78647f
c36 324 0 4.53973f
c37 321 0 0.292635f
c38 317 0 1.78647f
c39 312 0 4.55206f
c40 309 0 0.347475f
c41 305 0 1.7885f
c42 300 0 3.57615f
c43 295 0 1.17615f
c44 294 0 6.15809f
c45 293 0 2.1197f
c46 288 0 0.661743f
c47 287 0 28.7837f
c48 284 0 3.49538f
c49 283 0 4.08751f
c50 282 0 3.50262f
c51 281 0 2.37916f
c52 136 0 12.6172f
c53 131 0 3.78036f
c54 114 0 0.973281f
c55 112 0 1.02198f
c56 109 0 36.9766f
c57 13 0 0.848925f
c58 12 0 2.96286f
c59 9 0 0.821864f
c60 8 0 9.11538f
r61 519 521 0.000462331 
r62 518 519 0.0825499 
r63 515 518 0.000695428 
r64 509 510 0.0152277 
r65 508 509 0.382878 
r66 498 499 0.11055 
r67 501 496 0.00897078 
r68 496 499 0.186408 
r69 492 496 0.102913 
r70 490 509 0.0444444 
r71 487 508 0.0444444 
r72 453 512 0.00261566 
r73 510 453 0.0264481 
r74 451 453 0.6 
r75 449 451 0.179048 
r76 449 519 0.0925926 
r77 445 449 0.0787302 
r78 443 508 0.0422587 
r79 504 443 0.00415301 
r80 441 443 0.6 
r81 439 441 0.141 
r82 439 518 0.0925926 
r83 435 439 0.062 
r84 433 498 0.0675728 
r85 496 433 0.00828479 
r86 431 433 0.0307692 
r87 416 417 0.0479309 
r88 415 416 0.0479309 
r89 414 415 0.0479309 
r90 413 414 0.0479309 
r91 496 413 0.00487433 
r92 411 496 0.0430566 
r93 410 411 0.0479309 
r94 409 410 0.0479309 
r95 408 409 0.0479309 
r96 402 417 0.0905845 
r97 402 426 0.00694097 
r98 417 398 4.6725 
r99 396 425 0.00756288 
r100 391 425 0.049467 
r101 391 392 3.2 
r102 416 387 4.6725 
r103 385 424 0.00756288 
r104 384 425 0.00756288 
r105 384 385 0.0977245 
r106 379 424 0.049467 
r107 379 380 3.2 
r108 415 375 4.6725 
r109 373 423 0.00756288 
r110 372 424 0.00756288 
r111 372 373 0.0983851 
r112 367 423 0.049467 
r113 367 368 3.2 
r114 414 363 4.6725 
r115 359 422 0.00756288 
r116 358 423 0.00756288 
r117 353 422 0.049467 
r118 353 354 3.2 
r119 413 349 4.6725 
r120 346 421 0.00756288 
r121 345 422 0.00756288 
r122 340 421 0.049467 
r123 340 341 3.2 
r124 411 336 4.6725 
r125 334 420 0.00756288 
r126 333 421 0.00756288 
r127 333 334 0.0977245 
r128 328 420 0.049467 
r129 328 329 3.2 
r130 410 324 4.6725 
r131 322 419 0.00756288 
r132 321 420 0.00756288 
r133 321 322 0.0983851 
r134 316 419 0.049467 
r135 316 317 3.2 
r136 409 312 4.6725 
r137 310 418 0.00756288 
r138 309 419 0.00756288 
r139 309 310 0.0977245 
r140 304 418 0.049467 
r141 304 305 3.2 
r142 408 300 4.6725 
r143 296 496 0.0416807 
r144 405 295 0.04948 
r145 295 296 0.257927 
r146 426 294 0.04948 
r147 294 496 0.25972 
r148 293 418 0.00756288 
r149 345 288 0.0606211 
r150 346 288 0.037764 
r151 358 288 0.0958084 
r152 359 288 0.00191617 
r153 288 290 0.00611765 
r154 290 287 0.423529 
r155 287 288 0.464471 
r156 284 408 0.0905845 
r157 284 405 0.00694097 
r158 283 405 0.000930233 
r159 282 426 0.116279 
r160 281 501 0.02 
r161 280 282 0.0464401 
r162 280 492 0.02 
r163 281 279 0.0464401 
r164 279 426 0.108408 
r165 277 490 0.197906 
r166 276 490 0.0872727 
r167 272 405 0.108408 
r168 271 283 0.115349 
r169 270 487 0.197906 
r170 269 487 0.0872727 
r171 136 431 0.603333 
r172 134 136 0.666667 
r173 131 134 0.581161 
r174 131 510 0.133333 
r175 272 114 0.0464401 
r176 271 112 0.0464401 
r177 108 114 0.0496984 
r178 108 109 0.401553 
r179 107 112 0.0496984 
r180 107 109 0.479223 
r181 13 293 0.682733 
r182 270 13 0.0739438 
r183 12 396 0.683727 
r184 12 277 0.0739438 
r185 9 287 0.0816471 
r186 269 9 0.0527808 
r187 8 287 0.0689412 
r188 8 276 0.0527808 
.ends

.subckt PM_PC3C03%CP 31 41 85 95 139 149 193 203 384 404 411 418 425 432 439
+ 446 453 465
c0 467 0 6.8256f
c1 451 0 5.0783f
c2 444 0 5.06039f
c3 437 0 5.05603f
c4 430 0 5.1582f
c5 423 0 5.15359f
c6 416 0 5.06043f
c7 409 0 5.056f
c8 402 0 5.08207f
c9 388 0 13.8147f
c10 386 0 57.2219f
c11 379 0 1.35523f
c12 373 0 13.3673f
c13 371 0 56.0132f
c14 370 0 8.66518f
c15 368 0 8.67191f
c16 364 0 38.7724f
c17 331 0 45.4729f
c18 329 0 13.6286f
c19 307 0 45.5409f
c20 305 0 13.3165f
c21 213 0 1.19144f
c22 209 0 1.26164f
c23 200 0 1.9036f
c24 190 0 1.90845f
c25 181 0 2.21962f
c26 179 0 8.68829f
c27 173 0 2.39526f
c28 171 0 9.38733f
c29 159 0 1.25429f
c30 155 0 1.25832f
c31 146 0 1.90361f
c32 136 0 1.90845f
c33 127 0 2.37105f
c34 125 0 9.38162f
c35 119 0 2.37627f
c36 117 0 9.38733f
c37 105 0 1.25429f
c38 101 0 1.25832f
c39 92 0 1.90361f
c40 82 0 1.90845f
c41 73 0 2.37105f
c42 71 0 9.38162f
c43 65 0 2.37627f
c44 63 0 9.38733f
c45 51 0 1.25762f
c46 47 0 1.19418f
c47 38 0 1.90361f
c48 28 0 1.90845f
c49 19 0 2.39009f
c50 17 0 9.38162f
c51 11 0 2.2252f
c52 9 0 8.70047f
r53 465 467 0.321724 
r54 451 453 4.57 
r55 444 446 4.57 
r56 437 439 4.57 
r57 430 432 4.57 
r58 423 425 4.57 
r59 416 418 4.57 
r60 409 411 4.57 
r61 402 404 4.57 
r62 391 392 0.545455 
r63 386 388 0.181818 
r64 386 391 0.617483 
r65 381 465 0.00413793 
r66 462 381 0.317586 
r67 379 381 0.133333 
r68 379 384 0.00121944 
r69 376 377 0.545455 
r70 371 373 0.181818 
r71 371 376 0.643914 
r72 370 392 0.0864502 
r73 368 377 0.0901729 
r74 365 388 0.162471 
r75 364 365 0.02 
r76 363 364 0.0377087 
r77 362 363 0.0154501 
r78 361 362 0.0154501 
r79 360 361 0.0154501 
r80 359 360 0.0154501 
r81 358 359 0.0154501 
r82 357 358 0.0154501 
r83 356 357 0.0154501 
r84 354 373 0.169451 
r85 353 356 0.0365303 
r86 353 354 0.02 
r87 350 363 0.02 
r88 347 362 0.02 
r89 344 361 0.02 
r90 341 360 0.02 
r91 432 340 0.725 
r92 446 338 0.725 
r93 336 338 0.12 
r94 336 340 0.12 
r95 439 335 0.715 
r96 453 333 0.715 
r97 331 333 0.12 
r98 331 335 0.12 
r99 331 336 0.000178372 
r100 330 467 0.02 
r101 330 336 0.0897213 
r102 329 370 0.0610829 
r103 329 331 0.0437458 
r104 326 359 0.02 
r105 323 358 0.02 
r106 320 357 0.02 
r107 317 356 0.02 
r108 404 316 0.725 
r109 418 314 0.725 
r110 312 314 0.12 
r111 312 316 0.12 
r112 411 311 0.715 
r113 425 309 0.715 
r114 307 309 0.12 
r115 307 311 0.12 
r116 307 312 0.000182025 
r117 306 462 0.02 
r118 306 312 0.0915586 
r119 305 368 0.062012 
r120 305 307 0.0454607 
r121 213 208 2.12 
r122 451 208 6 
r123 200 203 0.14 
r124 200 363 0.315789 
r125 209 198 2.12 
r126 444 198 6 
r127 190 193 0.14 
r128 190 362 0.315789 
r129 184 213 6 
r130 350 181 4.5725 
r131 179 181 6 
r132 179 184 16.39 
r133 176 209 6 
r134 347 173 4.5725 
r135 171 173 6 
r136 171 176 16.39 
r137 159 154 2.12 
r138 437 154 6 
r139 146 149 0.14 
r140 146 361 0.315789 
r141 155 144 2.12 
r142 430 144 6 
r143 136 139 0.14 
r144 136 360 0.315789 
r145 130 159 6 
r146 344 127 4.5725 
r147 125 127 6 
r148 125 130 16.39 
r149 122 155 6 
r150 341 119 4.5725 
r151 117 119 6 
r152 117 122 16.39 
r153 105 100 2.12 
r154 423 100 6 
r155 92 95 0.14 
r156 92 359 0.315789 
r157 101 90 2.12 
r158 416 90 6 
r159 82 85 0.14 
r160 82 358 0.315789 
r161 76 105 6 
r162 326 73 4.5725 
r163 71 73 6 
r164 71 76 16.39 
r165 68 101 6 
r166 323 65 4.5725 
r167 63 65 6 
r168 63 68 16.39 
r169 51 46 2.12 
r170 409 46 6 
r171 38 41 0.14 
r172 38 357 0.315789 
r173 47 36 2.12 
r174 402 36 6 
r175 28 31 0.14 
r176 28 356 0.315789 
r177 22 51 6 
r178 320 19 4.5725 
r179 17 19 6 
r180 17 22 16.39 
r181 14 47 6 
r182 317 11 4.5725 
r183 9 11 6 
r184 9 14 16.39 
.ends

.subckt PM_PC3C03%NODE 135 137 153 302 304 320 469 471 487 636 638 654 797 799
+ 803 807 811 813 817 819 823 827 831 833 837 839 843 847 851 853 857 859 863 867
+ 871 873 888 889 895 901
c0 901 0 3.15176f
c1 895 0 3.15176f
c2 889 0 3.15176f
c3 888 0 3.15176f
c4 873 0 1.83954f
c5 871 0 0.811143f
c6 867 0 1.39329f
c7 863 0 1.39329f
c8 859 0 1.39677f
c9 857 0 0.649602f
c10 853 0 1.39677f
c11 851 0 0.649233f
c12 847 0 1.39495f
c13 843 0 1.39495f
c14 839 0 1.24927f
c15 837 0 0.649617f
c16 833 0 1.24927f
c17 831 0 0.649233f
c18 827 0 1.39495f
c19 823 0 1.39495f
c20 819 0 1.39677f
c21 817 0 0.649617f
c22 813 0 1.39677f
c23 811 0 0.649233f
c24 807 0 1.39329f
c25 803 0 1.39329f
c26 799 0 1.83914f
c27 797 0 0.81284f
c28 668 0 0.210766f
c29 662 0 2.88582f
c30 654 0 1.40807f
c31 651 0 0.352858f
c32 649 0 2.54946f
c33 642 0 0.301806f
c34 638 0 0.646553f
c35 636 0 0.647105f
c36 610 0 1.77171f
c37 604 0 0.253281f
c38 598 0 12.1082f
c39 592 0 0.236429f
c40 590 0 0.0685981f
c41 531 0 0.111066f
c42 529 0 0.00915476f
c43 528 0 0.0948023f
c44 524 0 0.0667564f
c45 523 0 0.00915476f
c46 518 0 0.0924878f
c47 516 0 0.0285163f
c48 512 0 0.0585796f
c49 511 0 0.0899386f
c50 510 0 0.166184f
c51 508 0 0.0207811f
c52 507 0 0.0987158f
c53 506 0 0.0207811f
c54 505 0 0.034125f
c55 504 0 0.126743f
c56 503 0 0.0250391f
c57 501 0 0.211137f
c58 495 0 2.86215f
c59 487 0 1.40808f
c60 484 0 0.35013f
c61 475 0 0.294646f
c62 471 0 0.646777f
c63 469 0 0.64716f
c64 443 0 1.76504f
c65 437 0 0.249207f
c66 431 0 12.1255f
c67 425 0 0.235651f
c68 423 0 0.0685981f
c69 364 0 0.108385f
c70 362 0 0.00915476f
c71 361 0 0.0948023f
c72 357 0 0.0667564f
c73 356 0 0.00915476f
c74 351 0 0.0924714f
c75 349 0 0.0285163f
c76 345 0 0.0537159f
c77 344 0 0.0891146f
c78 343 0 0.158403f
c79 341 0 0.0207811f
c80 340 0 0.0987158f
c81 339 0 0.0207811f
c82 338 0 0.034125f
c83 337 0 0.126743f
c84 336 0 0.0250391f
c85 334 0 0.211137f
c86 328 0 2.86215f
c87 320 0 1.40808f
c88 317 0 0.35013f
c89 308 0 0.294646f
c90 304 0 0.646777f
c91 302 0 0.64716f
c92 276 0 1.76504f
c93 270 0 0.249207f
c94 264 0 12.1255f
c95 258 0 0.235651f
c96 256 0 0.0685981f
c97 197 0 0.108385f
c98 195 0 0.00915476f
c99 194 0 0.0948023f
c100 190 0 0.0667564f
c101 189 0 0.00915476f
c102 184 0 0.0924714f
c103 182 0 0.0285163f
c104 178 0 0.0537159f
c105 177 0 0.0891146f
c106 176 0 0.158403f
c107 174 0 0.0207811f
c108 173 0 0.0987158f
c109 172 0 0.0207811f
c110 171 0 0.034125f
c111 170 0 0.126743f
c112 169 0 0.0250391f
c113 167 0 0.210786f
c114 161 0 2.8861f
c115 153 0 1.40807f
c116 150 0 0.352516f
c117 141 0 0.306105f
c118 137 0 0.646777f
c119 135 0 0.64716f
c120 109 0 1.77165f
c121 103 0 0.253796f
c122 97 0 12.1069f
c123 91 0 0.235651f
c124 89 0 0.0694041f
c125 30 0 0.108416f
c126 28 0 0.00915476f
c127 27 0 0.0948023f
c128 23 0 0.0667564f
c129 22 0 0.00915476f
c130 17 0 0.0933247f
c131 15 0 0.0285163f
c132 11 0 0.0537159f
c133 10 0 0.0891146f
c134 9 0 0.158403f
c135 7 0 0.0207811f
c136 6 0 0.0990278f
c137 5 0 0.0207811f
c138 4 0 0.0405911f
c139 3 0 0.128058f
c140 2 0 0.030418f
r141 915 916 0.786667 
r142 913 915 0.786667 
r143 888 911 0.47 
r144 654 659 1.2725 
r145 651 668 2 
r146 916 649 0.786667 
r147 911 649 6 
r148 642 645 0.000863309 
r149 642 662 6 
r150 610 668 1.41333 
r151 608 610 6 
r152 606 608 2.20833 
r153 606 649 6 
r154 659 604 6 
r155 602 604 6 
r156 602 606 4.895 
r157 662 600 2.67833 
r158 598 600 6 
r159 598 602 3.82333 
r160 591 651 0.231667 
r161 590 592 0.114595 
r162 590 591 0.02 
r163 533 871 238 
r164 532 873 542.333 
r165 528 645 14.2857 
r166 528 529 2.23066 
r167 527 638 238 
r168 527 529 0.93595 
r169 526 867 542.333 
r170 525 526 1.57738 
r171 524 592 10.6667 
r172 524 525 5.83616 
r173 522 645 14.2857 
r174 522 523 2.23066 
r175 521 636 238 
r176 521 523 0.93595 
r177 520 863 542.333 
r178 519 520 1.57443 
r179 518 592 10 
r180 518 519 6.07866 
r181 515 859 542.333 
r182 514 857 238 
r183 512 533 3.37824 
r184 512 531 8.28571 
r185 511 525 4.40759 
r186 510 532 3.35237 
r187 510 511 30.3333 
r188 509 529 2.23066 
r189 508 531 12 
r190 508 509 8.28571 
r191 516 507 12 
r192 506 523 2.23066 
r193 506 507 8.28571 
r194 505 515 3.35237 
r195 504 519 4.24659 
r196 504 505 31 
r197 503 514 3.37824 
r198 516 503 8.28571 
r199 487 492 1.2725 
r200 484 501 2 
r201 901 481 0.47 
r202 481 916 6 
r203 475 478 0.000863309 
r204 475 495 6 
r205 443 501 1.41333 
r206 441 443 6 
r207 439 441 2.20833 
r208 439 916 6 
r209 492 437 6 
r210 435 437 6 
r211 435 439 4.895 
r212 495 433 2.67833 
r213 431 433 6 
r214 431 435 3.82333 
r215 424 484 0.231667 
r216 423 425 0.114595 
r217 423 424 0.02 
r218 366 851 238 
r219 365 853 542.333 
r220 361 478 14.2857 
r221 361 362 2.23066 
r222 360 471 238 
r223 360 362 0.93595 
r224 359 847 542.333 
r225 358 359 1.57738 
r226 357 425 10.6667 
r227 357 358 5.83616 
r228 355 478 14.2857 
r229 355 356 2.23066 
r230 354 469 238 
r231 354 356 0.93595 
r232 353 843 542.333 
r233 352 353 1.57443 
r234 351 425 10 
r235 351 352 6.07866 
r236 348 839 542.333 
r237 347 837 238 
r238 345 366 3.37824 
r239 345 364 8.28571 
r240 344 358 4.40759 
r241 343 365 3.35237 
r242 343 344 30.3333 
r243 342 362 2.23066 
r244 341 364 12 
r245 341 342 8.28571 
r246 349 340 12 
r247 339 356 2.23066 
r248 339 340 8.28571 
r249 338 348 3.35237 
r250 337 352 4.24659 
r251 337 338 31 
r252 336 347 3.37824 
r253 349 336 8.28571 
r254 320 325 1.2725 
r255 317 334 2 
r256 895 314 0.47 
r257 314 915 6 
r258 308 311 0.000863309 
r259 308 328 6 
r260 276 334 1.41333 
r261 274 276 6 
r262 272 274 2.20833 
r263 272 915 6 
r264 325 270 6 
r265 268 270 6 
r266 268 272 4.895 
r267 328 266 2.67833 
r268 264 266 6 
r269 264 268 3.82333 
r270 257 317 0.231667 
r271 256 258 0.114595 
r272 256 257 0.02 
r273 199 831 238 
r274 198 833 542.333 
r275 194 311 14.2857 
r276 194 195 2.23066 
r277 193 304 238 
r278 193 195 0.93595 
r279 192 827 542.333 
r280 191 192 1.57738 
r281 190 258 10.6667 
r282 190 191 5.83616 
r283 188 311 14.2857 
r284 188 189 2.23066 
r285 187 302 238 
r286 187 189 0.93595 
r287 186 823 542.333 
r288 185 186 1.57443 
r289 184 258 10 
r290 184 185 6.07866 
r291 181 819 542.333 
r292 180 817 238 
r293 178 199 3.37824 
r294 178 197 8.28571 
r295 177 191 4.40759 
r296 176 198 3.35237 
r297 176 177 30.3333 
r298 175 195 2.23066 
r299 174 197 12 
r300 174 175 8.28571 
r301 182 173 12 
r302 172 189 2.23066 
r303 172 173 8.28571 
r304 171 181 3.35237 
r305 170 185 4.24659 
r306 170 171 31 
r307 169 180 3.37824 
r308 182 169 8.28571 
r309 153 158 1.2725 
r310 150 167 2 
r311 889 147 0.47 
r312 147 913 6 
r313 141 144 0.000863309 
r314 141 161 6 
r315 109 167 1.41333 
r316 107 109 6 
r317 105 107 2.20833 
r318 105 913 6 
r319 158 103 6 
r320 101 103 6 
r321 101 105 4.895 
r322 161 99 2.67833 
r323 97 99 6 
r324 97 101 3.82333 
r325 90 150 0.231667 
r326 89 91 0.114595 
r327 89 90 0.02 
r328 32 811 238 
r329 31 813 542.333 
r330 27 144 14.2857 
r331 27 28 2.23066 
r332 26 137 238 
r333 26 28 0.93595 
r334 25 807 542.333 
r335 24 25 1.57738 
r336 23 91 10.6667 
r337 23 24 5.83616 
r338 21 144 14.2857 
r339 21 22 2.23066 
r340 20 135 238 
r341 20 22 0.93595 
r342 19 803 542.333 
r343 18 19 1.57443 
r344 17 91 10 
r345 17 18 6.07866 
r346 14 799 542.333 
r347 13 797 238 
r348 11 32 3.37824 
r349 11 30 8.28571 
r350 10 24 4.40759 
r351 9 31 3.35237 
r352 9 10 30.3333 
r353 8 28 2.23066 
r354 7 30 12 
r355 7 8 8.28571 
r356 15 6 12 
r357 5 22 2.23066 
r358 5 6 8.28571 
r359 4 14 3.35237 
r360 3 18 4.24659 
r361 3 4 31 
r362 2 13 3.37824 
r363 15 2 8.28571 
.ends

.subckt PM_PC3C03%VDDO 221 225 228 233 240 246 252 255 260 268 297 303 306 311
c0 311 0 19.0544f
c1 303 0 49.9334f
c2 270 0 0.185966f
c3 265 0 0.470161f
c4 260 0 62.5827f
c5 252 0 51.2974f
c6 237 0 0.611631f
c7 233 0 3.937f
c8 225 0 2.13044f
c9 215 0 0.0892801f
c10 214 0 0.906597f
c11 192 0 0.0892801f
c12 191 0 4.80629f
c13 189 0 10.1386f
c14 37 0 11.3929f
c15 28 0 1.04153f
c16 26 0 33.2657f
c17 20 0 0.882344f
c18 17 0 0.186228f
c19 16 0 4.65868f
c20 7 0 0.184846f
c21 6 0 4.92552f
r22 302 303 0.00277996 
r23 297 300 0.00479303 
r24 272 311 0.00262523 
r25 270 272 0.5 
r26 268 270 0.229841 
r27 265 268 0.215873 
r28 265 302 1.5 
r29 255 258 0.0290124 
r30 251 252 0.138848 
r31 250 251 0.0861833 
r32 244 272 0.468739 
r33 306 244 0.00394881 
r34 242 244 0.5 
r35 240 242 0.181 
r36 237 240 0.17 
r37 237 300 1.5 
r38 235 250 0.02 
r39 231 233 0.056878 
r40 228 231 0.0510041 
r41 219 277 0.1015 
r42 192 214 0.04 
r43 192 277 0.0315 
r44 191 215 0.04 
r45 191 277 0.0585 
r46 189 277 0.509 
r47 187 219 0.3915 
r48 35 250 0.0012286 
r49 246 35 0.035569 
r50 35 37 0.04 
r51 34 225 0.069424 
r52 221 34 0.0614904 
r53 251 34 0.00378788 
r54 32 302 0.482004 
r55 300 32 0.0768627 
r56 30 32 0.1 
r57 235 30 0.228501 
r58 28 219 0.5 
r59 26 28 0.5 
r60 26 30 0.96115 
r61 23 260 0.113756 
r62 258 23 0.0729958 
r63 23 231 0.00344353 
r64 37 22 0.26696 
r65 258 22 0.04 
r66 20 215 0.415696 
r67 189 17 0.0446983 
r68 17 277 0.9345 
r69 16 20 0.0447006 
r70 16 277 0.975 
r71 10 214 0.426835 
r72 187 7 0.0446983 
r73 7 277 0.9345 
r74 6 10 0.0447006 
r75 6 277 0.975 
.ends

.subckt PM_PC3C03%VSSO 12 16 20 25 32 42 48 54 57 63
c0 63 0 29.6263f
c1 54 0 43.2264f
c2 38 0 1.03333f
c3 28 0 1.07466f
c4 25 0 88.8006f
c5 16 0 9.78673f
r6 61 63 0.00199444 
r7 60 61 0.356278 
r8 57 60 0.00283333 
r9 45 61 0.357143 
r10 42 45 0.266667 
r11 40 54 0.00298396 
r12 52 40 0.661818 
r13 38 40 1 
r14 38 42 0.565079 
r15 35 60 0.357143 
r16 32 35 0.21 
r17 30 52 0.0249198 
r18 48 30 0.00545455 
r19 28 30 1 
r20 28 32 0.445 
r21 24 25 0.0830497 
r22 23 24 0.0758705 
r23 20 23 0.00779737 
r24 7 16 0.0415248 
r25 12 7 0.0418339 
r26 24 7 0.00157233 
r27 3 52 0.3 
r28 1 23 0.02 
r29 1 3 0.941849 
.ends

