* File: pc3d21.dist.sp.pex
* Created: Sun Jul  4 12:31:01 2010
* Program "Calibre xRC"
* Version "v2008.4_19.14"
* Nominal Temperature: 27C
* Circuit Temperature: 27C
* 
.subckt PM_PC3D21%VSS 818 888 910 953 962 974 977 983
c0 983 0 88.6777f
c1 974 0 47.8389f
c2 961 0 54.7757f
c3 959 0 2.3768f
c4 953 0 0.00116039f
c5 950 0 1.09105f
c6 927 0 2.39041f
c7 918 0 12.3809f
c8 917 0 1.77327f
c9 907 0 1.88751f
c10 899 0 14.8664f
c11 885 0 1.45648f
c12 882 0 2.50412f
c13 846 0 25.3375f
c14 833 0 0.0691108f
c15 832 0 0.0657389f
c16 831 0 6.05505f
c17 830 0 0.745402f
c18 829 0 0.269279f
c19 826 0 0.0372194f
c20 818 0 2.07055f
c21 816 0 6.64907f
c22 815 0 0.218207f
c23 813 0 0.69473f
c24 806 0 8.59778f
c25 804 0 0.255493f
c26 803 0 0.0856199f
c27 802 0 1.18476f
c28 696 0 2.50366f
c29 688 0 0.442566f
c30 686 0 0.184759f
c31 684 0 0.271526f
c32 681 0 24.5337f
c33 676 0 1.0863f
c34 675 0 6.52093f
c35 674 0 0.192795f
c36 669 0 2.10084f
c37 666 0 1.61909f
c38 663 0 0.135881f
c39 662 0 2.46923f
c40 661 0 0.119796f
c41 660 0 0.382053f
c42 659 0 2.03478f
c43 573 0 0.162892f
c44 571 0 0.72248f
c45 569 0 0.203897f
c46 544 0 2.94311f
c47 530 0 3.05953f
c48 528 0 0.031054f
c49 524 0 6.24623f
c50 523 0 0.161087f
c51 508 0 5.68764f
c52 505 0 3.2536f
r53 981 983 0.000702051 
r54 980 981 0.0832563 
r55 977 980 0.000703354 
r56 973 974 0.00318245 
r57 970 971 0.0645663 
r58 969 970 0.102493 
r59 968 969 0.128574 
r60 967 968 0.0141176 
r61 966 967 0.00135593 
r62 959 973 0.461538 
r63 950 953 1.5675 
r64 950 970 1.5 
r65 947 969 0.0535714 
r66 927 966 0.6 
r67 925 961 0.0297924 
r68 925 927 3.23529 
r69 917 961 0.0158586 
r70 917 918 1.016 
r71 914 973 0.00119641 
r72 971 914 0.110269 
r73 912 914 0.428571 
r74 910 912 0.189 
r75 907 910 0.013 
r76 907 981 0.131579 
r77 903 904 1.13584 
r78 902 903 0.55797 
r79 899 902 0.628223 
r80 899 971 0.3 
r81 892 966 0.0882951 
r82 962 892 0.00438684 
r83 890 892 0.428571 
r84 888 890 0.189 
r85 885 888 0.013 
r86 885 980 0.131579 
r87 955 882 1 
r88 845 879 0.02 
r89 845 846 0.9662 
r90 831 947 2.7305 
r91 831 832 0.0338756 
r92 825 833 0.0338756 
r93 824 832 0.0338756 
r94 821 833 0.00880368 
r95 820 832 0.00880368 
r96 818 874 2.59036 
r97 955 818 1.07807 
r98 821 818 0.88 
r99 820 818 1.064 
r100 817 961 0.0158586 
r101 817 818 1.9975 
r102 816 833 0.0338756 
r103 829 815 0.0632911 
r104 815 813 0.0574488 
r105 812 826 0.0448201 
r106 809 959 1.518 
r107 808 959 0.426 
r108 806 874 1.08482 
r109 804 955 1.06072 
r110 803 918 0.056 
r111 802 803 0.0448201 
r112 802 812 2.13041 
r113 816 699 0.592 
r114 818 699 1.93 
r115 693 947 1.612 
r116 826 693 1.283 
r117 693 968 1.5 
r118 696 688 2 
r119 903 688 2 
r120 699 686 3 
r121 902 686 3 
r122 684 874 3 
r123 904 684 3 
r124 681 896 1.1314 
r125 681 967 0.125 
r126 680 882 0.0075 
r127 879 680 0.056 
r128 896 680 0.24 
r129 678 830 0.102486 
r130 678 829 0.0155975 
r131 846 678 1 
r132 676 825 0.6415 
r133 809 676 0.0446983 
r134 675 824 0.6415 
r135 808 675 0.0446983 
r136 673 696 0.319594 
r137 673 674 0.0100156 
r138 668 669 1.37048 
r139 667 674 0.065217 
r140 666 668 0.0447067 
r141 666 667 1.0122 
r142 663 664 0.678222 
r143 662 669 0.0447675 
r144 662 664 0.650667 
r145 660 674 0.065217 
r146 660 661 0.254146 
r147 659 663 0.0448242 
r148 658 661 0.0446983 
r149 658 659 1.4039 
r150 572 573 0.147619 
r151 568 569 0.14988 
r152 806 568 0.0380723 
r153 565 567 0.143333 
r154 804 564 0.0385542 
r155 562 564 0.14506 
r156 818 561 0.159 
r157 544 818 0.159 
r158 543 573 0.02 
r159 543 561 1.247 
r160 542 569 0.02 
r161 542 544 1.243 
r162 818 541 0.192 
r163 539 818 0.192 
r164 538 539 0.342 
r165 818 538 0.192 
r166 536 818 0.192 
r167 535 536 0.342 
r168 818 535 0.192 
r169 533 818 0.192 
r170 532 533 0.342 
r171 818 532 0.192 
r172 530 818 0.192 
r173 529 572 0.02 
r174 529 541 1.214 
r175 528 571 0.04 
r176 528 530 0.243 
r177 526 568 0.02 
r178 526 571 0.938734 
r179 524 572 0.0380952 
r180 524 830 4.80524 
r181 523 813 0.555238 
r182 523 567 0.0380952 
r183 818 519 0.159 
r184 517 818 0.159 
r185 516 517 0.408 
r186 818 516 0.159 
r187 514 818 0.159 
r188 513 514 0.408 
r189 818 513 0.159 
r190 511 818 0.159 
r191 510 511 0.408 
r192 818 510 0.159 
r193 508 818 0.159 
r194 507 567 0.02 
r195 507 519 1.247 
r196 506 564 0.02 
r197 506 508 1.243 
r198 505 565 0.02 
r199 504 562 0.02 
r200 504 505 4.69271 
.ends

.subckt PM_PC3D21%U14_MN4$11_gate 98 103 219 224 340 345 410 415 420 425 430
+ 435 449
c0 608 0 0.262319f
c1 599 0 0.434391f
c2 594 0 0.434851f
c3 589 0 0.434575f
c4 584 0 0.435587f
c5 572 0 2.53433f
c6 568 0 0.236421f
c7 553 0 1.11308f
c8 552 0 0.431447f
c9 544 0 0.834078f
c10 542 0 1.1253f
c11 538 0 0.826643f
c12 532 0 0.831111f
c13 526 0 0.840249f
c14 524 0 0.265083f
c15 522 0 0.154919f
c16 519 0 0.549905f
c17 516 0 0.0542673f
c18 515 0 0.491336f
c19 514 0 0.0454806f
c20 512 0 0.877133f
c21 511 0 0.746487f
c22 507 0 1.12148f
c23 503 0 1.12251f
c24 502 0 0.166461f
c25 501 0 8.91614f
c26 498 0 7.05495f
c27 495 0 0.470146f
c28 492 0 15.6348f
c29 487 0 1.41523f
c30 485 0 0.126896f
c31 480 0 0.113594f
c32 474 0 0.678933f
c33 473 0 0.0631592f
c34 464 0 0.535943f
c35 456 0 0.535994f
c36 450 0 0.299915f
c37 449 0 0.233998f
c38 442 0 0.166246f
c39 441 0 0.608776f
c40 440 0 0.169456f
c41 439 0 0.609004f
c42 438 0 0.169342f
c43 437 0 0.539737f
c44 435 0 3.10106f
c45 430 0 3.04886f
c46 425 0 3.04886f
c47 420 0 3.04886f
c48 415 0 3.04886f
c49 410 0 3.10216f
c50 354 0 0.974344f
c51 345 0 3.04886f
c52 344 0 0.168943f
c53 340 0 3.04886f
c54 339 0 0.168259f
c55 236 0 0.972748f
c56 224 0 3.04886f
c57 223 0 0.16995f
c58 219 0 3.04886f
c59 218 0 0.170025f
c60 115 0 0.975477f
c61 103 0 3.04886f
c62 102 0 0.169855f
c63 98 0 3.04886f
c64 97 0 0.169912f
r65 601 603 0.0556098 
r66 566 568 6 
r67 603 552 0.000487805 
r68 550 552 1.5 
r69 550 553 0.118418 
r70 546 599 0.00195122 
r71 596 546 0.0536585 
r72 544 546 1.5 
r73 544 548 0.0693333 
r74 540 594 0.000487805 
r75 591 540 0.055122 
r76 538 540 1.5 
r77 538 542 0.0701687 
r78 534 589 0.00292683 
r79 586 534 0.0526829 
r80 532 534 1.5 
r81 532 536 0.0696651 
r82 528 584 0.00536585 
r83 581 528 0.0502439 
r84 526 528 1.5 
r85 526 530 0.0715479 
r86 577 524 0.0521951 
r87 522 524 3 
r88 521 608 0.00341463 
r89 519 521 3 
r90 518 519 0.0609362 
r91 517 519 0.145021 
r92 515 518 0.0604945 
r93 515 516 0.444 
r94 513 516 0.0453233 
r95 513 514 0.08 
r96 550 512 0.101228 
r97 511 514 0.0453233 
r98 511 512 0.926 
r99 510 548 0.02 
r100 553 510 1.459 
r101 508 542 0.0200096 
r102 507 548 0.02 
r103 507 508 1.47 
r104 506 536 0.02 
r105 542 506 1.475 
r106 504 530 0.0200098 
r107 503 536 0.02 
r108 503 504 1.472 
r109 501 517 0.0604945 
r110 501 502 10.879 
r111 498 568 6 
r112 522 496 0.0524051 
r113 496 498 3.76212 
r114 495 522 0.00124031 
r115 494 502 0.0631505 
r116 494 495 0.130853 
r117 566 492 15.6586 
r118 490 492 6 
r119 487 490 1.388 
r120 487 572 6 
r121 484 572 3.376 
r122 480 485 0.0933197 
r123 473 484 0.0447517 
r124 485 473 0.157176 
r125 480 449 0.0666667 
r126 442 474 1.85294 
r127 441 464 5.05882 
r128 440 464 5.05882 
r129 439 456 5.05882 
r130 438 456 5.05882 
r131 437 450 1.85294 
r132 432 442 3.88985 
r133 432 435 183.96 
r134 427 441 3.88985 
r135 427 430 183.96 
r136 422 440 3.88985 
r137 422 425 183.96 
r138 417 439 3.88985 
r139 417 420 183.96 
r140 412 438 3.88985 
r141 412 415 183.96 
r142 407 437 3.88985 
r143 407 410 183.96 
r144 350 354 5.05882 
r145 349 354 5.05882 
r146 344 350 3.88985 
r147 344 345 183.96 
r148 339 349 3.88985 
r149 339 340 183.96 
r150 464 298 0.00142683 
r151 599 298 3 
r152 354 287 0.00133393 
r153 601 287 3 
r154 354 262 0.0278113 
r155 603 262 3 
r156 474 251 0.00142683 
r157 608 251 3 
r158 229 236 5.05882 
r159 228 236 5.05882 
r160 223 229 3.88985 
r161 223 224 183.96 
r162 218 228 3.88985 
r163 218 219 183.96 
r164 456 177 0.00142683 
r165 589 177 3 
r166 236 166 0.00133393 
r167 591 166 3 
r168 141 236 0.0278113 
r169 594 141 3 
r170 464 130 0.0277856 
r171 596 130 3 
r172 108 115 5.05882 
r173 107 115 5.05882 
r174 102 108 3.88985 
r175 102 103 183.96 
r176 97 107 3.88985 
r177 97 98 183.96 
r178 450 56 0.00142683 
r179 577 56 3 
r180 115 45 0.00133393 
r181 581 45 3 
r182 20 115 0.0278113 
r183 584 20 3 
r184 456 9 0.0277856 
r185 586 9 3 
.ends

.subckt PM_PC3D21%VSSO 167 330 493 562 568 594 600 895 899 906 935 942 954 965
+ 967 975 981 985 992 998 1010 1051 1055 1061 1067
c0 1067 0 31.3063f
c1 1054 0 3.52185f
c2 1051 0 18.6894f
c3 1045 0 7.92036f
c4 1043 0 6.9617f
c5 1037 0 6.96195f
c6 1032 0 6.96199f
c7 1026 0 6.96197f
c8 1021 0 6.96025f
c9 1010 0 0.00200359f
c10 1005 0 8.95235f
c11 998 0 0.319472f
c12 985 0 1.39251f
c13 981 0 1.34465f
c14 970 0 1.96897f
c15 967 0 0.00103801f
c16 965 0 8.25608e-19
c17 963 0 8.96457f
c18 952 0 7.8496f
c19 948 0 1.27875f
c20 938 0 1.65601f
c21 935 0 58.262f
c22 902 0 1.31273f
c23 899 0 10.6369f
c24 892 0 0.174831f
c25 890 0 0.191221f
c26 887 0 0.0212919f
c27 880 0 2.20754f
c28 870 0 9.67275f
c29 869 0 2.54594f
c30 867 0 0.0574344f
c31 866 0 0.212005f
c32 864 0 0.086847f
c33 862 0 1.28262f
c34 861 0 0.0204193f
c35 858 0 0.0328226f
c36 856 0 0.107983f
c37 855 0 0.0484324f
c38 854 0 1.50948f
c39 851 0 2.70895f
c40 848 0 0.475243f
c41 847 0 0.0594287f
c42 846 0 0.293756f
c43 844 0 10.9177f
c44 843 0 0.725625f
c45 833 0 0.708327f
c46 831 0 3.2432f
c47 829 0 0.383003f
c48 828 0 0.713156f
c49 827 0 0.297488f
c50 826 0 3.26314f
c51 825 0 0.383249f
c52 824 0 0.0689962f
c53 823 0 0.351569f
c54 790 0 0.122915f
c55 789 0 8.7061f
c56 759 0 0.269574f
c57 755 0 7.03694f
c58 753 0 0.146306f
c59 605 0 0.342309f
c60 600 0 0.00373164f
c61 594 0 0.378091f
c62 587 0 3.05309f
c63 585 0 0.618586f
c64 583 0 0.0956278f
c65 581 0 0.221339f
c66 579 0 0.237144f
c67 574 0 0.0142283f
c68 568 0 1.57837f
c69 562 0 0.319454f
c70 506 0 5.37124f
c71 408 0 14.0389f
c72 358 0 14.0381f
c73 245 0 14.039f
c74 195 0 14.0391f
c75 32 0 14.0364f
c76 10 0 0.146306f
r77 1065 1067 0.00282778 
r78 1064 1065 0.355444 
r79 1061 1064 0.00283333 
r80 1057 1058 0.0111317 
r81 1054 1057 0.0090538 
r82 1054 1055 0.02 
r83 1014 1015 0.0140639 
r84 1009 1010 0.0126606 
r85 1045 1007 0.0113761 
r86 1005 1007 0.0638298 
r87 1002 1049 2 
r88 998 1002 0.000761905 
r89 965 1009 0.013211 
r90 1005 965 0.000917431 
r91 963 965 0.000913242 
r92 963 1014 0.0638298 
r93 953 954 0.02 
r94 952 1014 0.0113242 
r95 950 952 0.0327869 
r96 950 953 0.0178092 
r97 948 950 0.029258 
r98 945 1065 0.357143 
r99 942 945 0.21 
r100 940 1051 0.00544385 
r101 1049 940 0.0327273 
r102 938 940 1 
r103 938 942 0.445 
r104 933 935 0.00612761 
r105 933 1045 0.0327869 
r106 1039 931 0.00301483 
r107 931 1043 0.00301741 
r108 929 931 0.0266667 
r109 929 933 0.0287785 
r110 992 928 0.130435 
r111 928 1037 0.00301741 
r112 1034 928 0.00301741 
r113 926 928 0.0266667 
r114 926 929 0.0242129 
r115 1028 925 0.00301483 
r116 925 1032 0.00301741 
r117 923 925 0.0266667 
r118 923 926 0.0242129 
r119 922 923 0.000615582 
r120 975 921 0.130435 
r121 921 1026 0.00301741 
r122 1023 921 0.00301741 
r123 919 921 0.0266667 
r124 919 922 0.0235973 
r125 1017 918 0.00301483 
r126 918 1021 0.00301741 
r127 916 918 0.0266667 
r128 916 919 0.0242129 
r129 915 948 0.02 
r130 915 916 0.0277012 
r131 953 912 0.428315 
r132 909 1064 0.357143 
r133 906 909 0.21 
r134 904 1060 0.148897 
r135 1058 904 0.0151391 
r136 902 904 1 
r137 902 906 0.445 
r138 891 1049 0.279893 
r139 891 892 0.00169958 
r140 879 892 0.0880724 
r141 879 880 4.02 
r142 985 877 0.445 
r143 875 877 0.75 
r144 875 878 0.0792513 
r145 981 874 0.365 
r146 872 874 0.6 
r147 872 875 0.0219251 
r148 871 890 0.00185772 
r149 871 872 0.0203209 
r150 870 892 0.00169958 
r151 870 878 0.0168984 
r152 868 890 0.0857909 
r153 868 869 3.63314 
r154 866 869 0.0448303 
r155 866 867 0.199481 
r156 863 867 0.0447008 
r157 863 864 0.0831579 
r158 861 862 0.109474 
r159 861 858 0.0429996 
r160 858 887 0.0914286 
r161 855 856 0.135 
r162 854 855 0.0448391 
r163 853 854 2.75862 
r164 851 970 6 
r165 848 887 0.0429996 
r166 848 851 0.0694737 
r167 846 853 0.044715 
r168 846 847 0.466667 
r169 845 1057 0.02 
r170 844 890 0.00185772 
r171 844 845 0.173904 
r172 843 847 0.0450432 
r173 1060 843 1.29371 
r174 835 1010 0.230275 
r175 833 1005 0.210275 
r176 832 970 3.78429 
r177 830 967 0.229041 
r178 830 831 0.0863581 
r179 828 963 0.209132 
r180 828 829 0.0863581 
r181 835 826 0.0861375 
r182 826 827 0.132033 
r183 833 825 0.0861375 
r184 823 832 0.0446983 
r185 823 824 0.542857 
r186 820 824 0.0449572 
r187 790 965 0.128 
r188 789 827 0.0473573 
r189 789 965 0.126 
r190 759 790 0.0473573 
r191 831 759 0.132033 
r192 755 965 0.126 
r193 754 965 0.128 
r194 753 754 0.0473573 
r195 753 829 0.250407 
r196 587 600 4.92 
r197 880 587 6 
r198 878 585 0.75 
r199 583 605 0.04 
r200 864 583 3 
r201 594 581 0.0610526 
r202 862 581 2 
r203 820 579 0.2775 
r204 856 579 6 
r205 574 585 0.437895 
r206 574 575 0.0407126 
r207 575 568 2.31765 
r208 605 562 0.228267 
r209 509 899 0.0419737 
r210 895 509 0.0413851 
r211 922 509 0.00128205 
r212 912 506 2.21804 
r213 506 1058 0.6 
r214 931 493 0.130435 
r215 992 408 0.00313778 
r216 1037 408 0.0652174 
r217 493 398 0.0031351 
r218 1039 398 0.0652174 
r219 358 493 0.00314046 
r220 1043 358 0.0652174 
r221 1007 347 0.0141284 
r222 347 1009 0.0652174 
r223 925 330 0.130435 
r224 975 245 0.00313778 
r225 1026 245 0.0652174 
r226 330 235 0.0031351 
r227 1028 235 0.0652174 
r228 195 330 0.00314046 
r229 1032 195 0.0652174 
r230 185 992 0.00313778 
r231 1034 185 0.0652174 
r232 918 167 0.130435 
r233 82 967 0.0126027 
r234 965 82 0.0131507 
r235 1015 82 0.0652174 
r236 167 72 0.0031351 
r237 1017 72 0.0652174 
r238 32 167 0.00314046 
r239 1021 32 0.0652174 
r240 22 975 0.00313778 
r241 1023 22 0.0652174 
r242 10 825 0.250407 
r243 10 755 0.0473573 
.ends

.subckt PM_PC3D21%CIN 14 19 45 55 118 151
c0 147 0 7.07074f
c1 137 0 15.6916f
c2 128 0 4.21598f
c3 122 0 0.143541f
c4 120 0 5.08146f
c5 115 0 0.112303f
c6 113 0 0.0723692f
c7 110 0 0.0810017f
c8 103 0 2.04148f
c9 99 0 1.5083f
c10 98 0 0.0379464f
c11 97 0 3.153f
c12 96 0 3.30766f
c13 94 0 0.0895149f
c14 91 0 0.0898897f
c15 88 0 0.0375884f
c16 87 0 0.855486f
c17 86 0 0.0338006f
c18 82 0 1.37568f
c19 79 0 0.0345401f
c20 78 0 0.568273f
c21 74 0 7.74777f
c22 68 0 0.246801f
c23 55 0 0.01128f
c24 45 0 1.07973f
c25 37 0 1.1786f
c26 36 0 1.9986f
c27 28 0 0.0729834f
c28 27 0 1.06541f
c29 26 0 0.350684f
c30 24 0 0.357702f
c31 19 0 6.32264e-19
c32 18 0 0.940805f
c33 14 0 5.39284e-19
c34 13 0 1.11938f
r35 135 137 3.34857 
r36 134 135 0.468571 
r37 132 134 11.5829 
r38 125 147 6 
r39 137 122 6 
r40 120 122 6 
r41 120 125 10.7371 
r42 115 151 0.0207123 
r43 115 150 0.0568712 
r44 113 115 6 
r45 113 118 0.0207123 
r46 112 147 11.4788 
r47 110 111 0.0446512 
r48 103 110 0.0447313 
r49 97 112 0.04509 
r50 97 98 7.86286 
r51 140 96 4.69857 
r52 94 96 6 
r53 150 94 0.285714 
r54 92 98 0.0446983 
r55 92 94 0.0457143 
r56 89 91 0.107847 
r57 89 140 6 
r58 87 91 0.0448046 
r59 87 88 1.56857 
r60 86 88 0.0448488 
r61 85 86 0.103226 
r62 82 132 6 
r63 80 82 2.17429 
r64 78 85 0.0448488 
r65 78 79 1.35143 
r66 128 76 7.37143 
r67 74 76 6 
r68 73 79 0.0446983 
r69 73 74 14.7657 
r70 70 128 6 
r71 68 80 0.0446983 
r72 68 70 0.3 
r73 55 40 1.125 
r74 111 40 6 
r75 37 108 2.29429 
r76 37 135 6 
r77 36 53 4.03143 
r78 108 36 6 
r79 103 33 2.70049 
r80 33 53 6 
r81 45 32 1.105 
r82 99 32 6 
r83 99 29 1.88 
r84 29 134 6 
r85 27 40 0.0125 
r86 27 28 0.0116061 
r87 25 28 0.0306792 
r88 25 26 0.453333 
r89 24 28 0.0306792 
r90 23 24 0.453333 
r91 18 26 0.0448998 
r92 18 19 1.1375 
r93 13 23 0.0448998 
r94 13 14 1.1375 
.ends

.subckt PM_PC3D21%PAD 21 50 91 120 161 190 247 271 295 319 349 355 380 488 507
+ 514
c0 522 0 26.8802f
c1 515 0 84.0152f
c2 514 0 64.3341f
c3 511 0 159.215f
c4 506 0 1.02561f
c5 499 0 9.97339f
c6 494 0 12.958f
c7 485 0 0.118304f
c8 482 0 204.606f
c9 468 0 15.3329f
c10 450 0 3.86483f
c11 381 0 128.439f
c12 380 0 1.04909f
c13 355 0 13.2018f
c14 349 0 13.1716f
c15 319 0 13.1699f
c16 295 0 13.1832f
c17 271 0 13.4186f
c18 247 0 13.1699f
c19 212 0 7.52869f
c20 190 0 2.9853f
c21 173 0 6.78371f
c22 161 0 2.9848f
c23 144 0 6.78371f
c24 120 0 2.9853f
c25 103 0 6.78371f
c26 91 0 2.9853f
c27 74 0 6.78371f
c28 50 0 2.98608f
c29 33 0 6.78371f
c30 21 0 2.9853f
c31 4 0 6.78371f
r32 522 523 0.118407 
r33 521 522 0.118407 
r34 520 521 0.056883 
r35 519 520 0.061524 
r36 518 519 0.118407 
r37 517 518 0.0830354 
r38 516 517 0.0353716 
r39 514 515 0.0124825 
r40 512 514 0.000593149 
r41 511 512 0.0669731 
r42 506 507 0.00916 
r43 499 517 0.0545455 
r44 494 520 0.015 
r45 485 488 0.00916 
r46 485 506 2 
r47 481 494 0.0264274 
r48 481 482 0.147774 
r49 475 476 0.00752787 
r50 474 475 0.021023 
r51 472 474 0.000537705 
r52 472 511 0.00162999 
r53 470 472 0.000537705 
r54 468 470 0.0285508 
r55 459 506 0.1388 
r56 458 459 0.132996 
r57 457 458 0.0171733 
r58 456 457 0.0171733 
r59 455 456 0.0171733 
r60 454 455 0.0171733 
r61 453 454 0.0171733 
r62 450 499 0.202116 
r63 482 383 0.0288462 
r64 381 453 0.00818451 
r65 381 383 0.00646891 
r66 450 380 0.0147368 
r67 344 349 0.0072093 
r68 453 344 0.0566038 
r69 342 355 0.0072093 
r70 458 342 0.0566038 
r71 315 319 0.0072093 
r72 457 315 0.0566038 
r73 291 295 0.0072093 
r74 456 291 0.0566038 
r75 267 271 0.0072093 
r76 455 267 0.0566038 
r77 243 247 0.0072093 
r78 454 243 0.0566038 
r79 223 226 0.0022831 
r80 476 223 0.0375475 
r81 223 512 0.00547945 
r82 474 222 0.00210084 
r83 220 222 0.000537705 
r84 470 220 0.00210084 
r85 222 218 0.0105115 
r86 475 218 0.00712251 
r87 214 226 0.0187738 
r88 218 214 0.00376393 
r89 476 214 0.00712251 
r90 212 220 0.0142754 
r91 468 212 0.00356125 
r92 515 197 0.345778 
r93 196 522 0.0220132 
r94 196 197 0.319822 
r95 190 177 0.00249413 
r96 197 177 0.0425532 
r97 173 190 0.00249413 
r98 197 173 0.0425532 
r99 515 168 0.345778 
r100 167 523 0.0220132 
r101 167 168 0.319822 
r102 161 148 0.00249413 
r103 168 148 0.0425532 
r104 144 161 0.00249413 
r105 168 144 0.0425532 
r106 515 127 0.345778 
r107 126 519 0.0220132 
r108 126 127 0.319822 
r109 120 107 0.00249413 
r110 127 107 0.0425532 
r111 103 120 0.00249413 
r112 127 103 0.0425532 
r113 515 98 0.345778 
r114 97 521 0.0220132 
r115 97 98 0.319822 
r116 91 78 0.00249413 
r117 98 78 0.0425532 
r118 74 91 0.00249413 
r119 98 74 0.0425532 
r120 515 57 0.345778 
r121 56 516 0.0220132 
r122 56 57 0.319822 
r123 50 37 0.00249413 
r124 57 37 0.0425532 
r125 33 50 0.00249413 
r126 57 33 0.0425532 
r127 515 28 0.345778 
r128 27 518 0.0220132 
r129 27 28 0.319822 
r130 21 8 0.00249413 
r131 28 8 0.0425532 
r132 4 21 0.00249413 
r133 28 4 0.0425532 
.ends

.subckt PM_PC3D21%U14_pgate_tol 18 37 68 87 118 137 168 187 298 300 302 304 359
+ 362 368 377 382 402 417 469
c0 681 0 0.414045f
c1 678 0 0.3136f
c2 676 0 0.314371f
c3 675 0 0.314371f
c4 673 0 0.314371f
c5 672 0 0.299846f
c6 670 0 0.314762f
c7 669 0 0.314371f
c8 667 0 0.314371f
c9 666 0 0.326634f
c10 663 0 7.10784f
c11 661 0 9.11201f
c12 651 0 0.138313f
c13 649 0 9.11314f
c14 646 0 0.0821611f
c15 640 0 0.405412f
c16 637 0 0.309607f
c17 635 0 0.309607f
c18 634 0 0.309607f
c19 632 0 0.309607f
c20 631 0 0.293407f
c21 629 0 0.309998f
c22 628 0 0.309607f
c23 626 0 0.309607f
c24 625 0 0.309862f
c25 622 0 7.23439f
c26 616 0 6.28578f
c27 615 0 0.419997f
c28 613 0 0.762971f
c29 608 0 4.5797f
c30 600 0 0.170111f
c31 581 0 7.97166f
c32 580 0 0.344279f
c33 574 0 15.7145f
c34 572 0 0.607092f
c35 568 0 1.21417f
c36 564 0 1.04332f
c37 560 0 0.604489f
c38 544 0 6.45385f
c39 542 0 0.265963f
c40 541 0 0.082441f
c41 530 0 0.168417f
c42 529 0 0.0440559f
c43 476 0 0.498797f
c44 469 0 1.51625f
c45 456 0 0.244803f
c46 452 0 0.171903f
c47 443 0 0.324326f
c48 439 0 0.435699f
c49 436 0 0.274844f
c50 431 0 1.73461f
c51 428 0 0.0436999f
c52 427 0 1.18193f
c53 425 0 1.03671f
c54 423 0 0.168007f
c55 421 0 0.0580007f
c56 417 0 0.831216f
c57 402 0 1.33339f
c58 400 0 0.0159861f
c59 399 0 0.13581f
c60 393 0 0.199249f
c61 391 0 0.0527726f
c62 390 0 0.0764203f
c63 389 0 0.0434107f
c64 388 0 0.245907f
c65 387 0 0.463687f
c66 382 0 1.30573f
c67 377 0 1.28567f
c68 375 0 0.0495389f
c69 374 0 0.383829f
c70 373 0 0.0506144f
c71 372 0 0.216417f
c72 368 0 1.81664f
c73 366 0 0.0510536f
c74 365 0 0.309779f
c75 362 0 3.46625f
c76 359 0 1.73449f
c77 296 0 5.10156f
c78 287 0 4.81366f
c79 286 0 0.372561f
c80 281 0 5.08333f
c81 280 0 0.424184f
c82 268 0 0.370539f
c83 221 0 4.92851f
c84 219 0 0.107369f
c85 217 0 0.133228f
c86 172 0 4.91999f
c87 170 0 0.105999f
c88 153 0 4.92136f
c89 151 0 0.105999f
c90 122 0 4.92136f
c91 120 0 0.105999f
c92 103 0 4.92369f
c93 101 0 0.106492f
c94 72 0 4.88998f
c95 70 0 0.105999f
c96 53 0 4.91601f
c97 51 0 0.105999f
c98 22 0 4.92136f
c99 20 0 0.105999f
c100 3 0 4.92136f
c101 1 0 0.105999f
r102 678 679 0.32439 
r103 675 676 0.32839 
r104 672 673 0.32839 
r105 669 670 0.32839 
r106 666 667 0.32839 
r107 653 655 0.786667 
r108 649 651 6 
r109 648 649 13.0907 
r110 644 646 6 
r111 642 644 0.333333 
r112 637 638 0.323902 
r113 634 635 0.327902 
r114 631 632 0.327902 
r115 628 629 0.327902 
r116 625 626 0.327902 
r117 620 651 6 
r118 616 618 6 
r119 615 620 0.0863734 
r120 615 616 4.10623 
r121 611 613 6 
r122 608 611 6.94919 
r123 608 646 6 
r124 605 613 1.13973 
r125 602 625 0.218537 
r126 622 602 0.158049 
r127 600 602 6 
r128 600 604 0.0447619 
r129 598 681 0.219512 
r130 679 598 0.16439 
r131 596 598 6 
r132 595 678 0.219512 
r133 676 595 0.16039 
r134 593 595 6 
r135 593 596 0.708293 
r136 592 675 0.219512 
r137 673 592 0.16039 
r138 590 592 6 
r139 590 593 0.708293 
r140 589 672 0.219512 
r141 670 589 0.16039 
r142 587 589 6 
r143 587 590 0.708293 
r144 586 669 0.219512 
r145 667 586 0.16039 
r146 584 586 6 
r147 584 587 0.708293 
r148 583 666 0.219512 
r149 663 583 0.16439 
r150 581 583 6 
r151 581 584 0.708293 
r152 580 618 0.049372 
r153 580 581 0.705854 
r154 577 661 6 
r155 655 574 0.544 
r156 572 574 6 
r157 572 577 0.334884 
r158 558 640 0.219512 
r159 638 558 0.164878 
r160 556 558 6 
r161 555 637 0.219512 
r162 635 555 0.160878 
r163 553 555 6 
r164 553 556 0.708293 
r165 552 634 0.219512 
r166 632 552 0.160878 
r167 550 552 6 
r168 550 553 0.708293 
r169 549 631 0.219512 
r170 629 549 0.160878 
r171 547 549 6 
r172 547 550 0.708293 
r173 546 628 0.218537 
r174 626 546 0.161854 
r175 544 546 6 
r176 544 547 0.707317 
r177 604 544 0.662439 
r178 600 542 0.0419048 
r179 541 605 0.0528445 
r180 541 542 0.16 
r181 534 535 1.18857 
r182 529 530 0.12 
r183 526 529 0.0451268 
r184 568 456 6 
r185 568 453 2.5675 
r186 453 648 6 
r187 564 452 6 
r188 564 449 2.26 
r189 449 655 6 
r190 448 648 0.64 
r191 644 448 0.165333 
r192 560 448 6 
r193 560 445 1.41429 
r194 445 476 6 
r195 443 539 1.70571 
r196 443 653 6 
r197 539 442 6 
r198 439 534 0.174286 
r199 439 642 6 
r200 438 661 1.45548 
r201 658 438 0.175484 
r202 534 438 6 
r203 535 436 6 
r204 469 434 2.3375 
r205 530 434 6 
r206 526 431 2.67 
r207 431 658 6 
r208 429 428 0.08 
r209 428 456 0.41 
r210 426 452 0.215 
r211 426 427 0.0302706 
r212 424 476 1.23714 
r213 423 442 0.133333 
r214 422 469 2.0425 
r215 421 436 0.354667 
r216 429 417 1.1475 
r217 401 402 2.0425 
r218 400 424 0.0447675 
r219 399 406 0.0447588 
r220 399 400 0.213333 
r221 393 425 0.0302706 
r222 392 393 0.5075 
r223 390 392 0.0447121 
r224 390 391 0.0993939 
r225 388 427 0.0119838 
r226 388 389 0.585714 
r227 387 391 0.0447113 
r228 386 423 0.0449258 
r229 386 387 1.15765 
r230 381 389 0.0449572 
r231 381 382 2.06 
r232 376 377 2.0925 
r233 375 422 0.0446983 
r234 374 401 0.0446983 
r235 374 375 0.51 
r236 372 425 0.0119838 
r237 372 373 0.585714 
r238 367 373 0.0449572 
r239 367 368 2.01 
r240 365 376 0.0446983 
r241 365 366 0.51 
r242 361 366 0.0446983 
r243 361 362 2.2275 
r244 360 421 0.0447588 
r245 360 362 3.765 
r246 406 359 2.44 
r247 296 304 394.95 
r248 681 295 2.81176 
r249 295 296 1.5 
r250 287 302 394.95 
r251 286 679 2.74706 
r252 286 287 1.5 
r253 281 298 394.95 
r254 280 663 2.85294 
r255 280 281 1.5 
r256 278 304 394.95 
r257 640 277 2.78235 
r258 277 278 1.5 
r259 269 302 394.95 
r260 268 638 2.74706 
r261 268 269 1.5 
r262 222 666 2.04706 
r263 221 300 394.95 
r264 221 222 4.2601 
r265 220 625 2.04706 
r266 219 300 394.95 
r267 219 220 4.2601 
r268 218 622 2.07059 
r269 217 298 394.95 
r270 217 218 4.2601 
r271 173 678 2.07647 
r272 172 187 394.95 
r273 172 173 4.2601 
r274 171 637 2.07647 
r275 170 187 394.95 
r276 170 171 4.2601 
r277 154 676 2.07647 
r278 153 168 394.95 
r279 153 154 4.2601 
r280 152 635 2.07647 
r281 151 168 394.95 
r282 151 152 4.2601 
r283 123 675 2.07647 
r284 122 137 394.95 
r285 122 123 4.2601 
r286 121 634 2.07647 
r287 120 137 394.95 
r288 120 121 4.2601 
r289 104 673 2.07647 
r290 103 118 394.95 
r291 103 104 4.2601 
r292 102 632 2.07647 
r293 101 118 394.95 
r294 101 102 4.2601 
r295 73 672 2.07647 
r296 72 87 394.95 
r297 72 73 4.2601 
r298 71 631 2.07647 
r299 70 87 394.95 
r300 70 71 4.2601 
r301 54 670 2.07647 
r302 53 68 394.95 
r303 53 54 4.2601 
r304 52 629 2.07647 
r305 51 68 394.95 
r306 51 52 4.2601 
r307 23 669 2.07647 
r308 22 37 394.95 
r309 22 23 4.2601 
r310 21 628 2.07647 
r311 20 37 394.95 
r312 20 21 4.2601 
r313 4 667 2.07647 
r314 3 18 394.95 
r315 3 4 4.2601 
r316 2 626 2.07647 
r317 1 18 394.95 
r318 1 2 4.2601 
.ends

.subckt PM_PC3D21%VDDO 824 892 903 914 925 936 947 958 973 1197 1206 1208 1270
+ 1278 1280 1284 1550 1554 1557 1561 1569 1576 1583 1592 1602 1613 1619 1625 1666
+ 1678 1681 1686
c0 1686 0 20.331f
c1 1678 0 46.8932f
c2 1662 0 3.07874f
c3 1631 0 9.57209f
c4 1625 0 1.05183f
c5 1619 0 0.967487f
c6 1613 0 2.02376f
c7 1610 0 3.35178f
c8 1599 0 0.505312f
c9 1595 0 30.2873f
c10 1594 0 1.97484f
c11 1592 0 62.8661f
c12 1575 0 50.9197f
c13 1566 0 0.696813f
c14 1564 0 1.24538f
c15 1561 0 3.00652f
c16 1554 0 2.49843f
c17 1548 0 0.13036f
c18 1543 0 0.0724239f
c19 1541 0 1.09396f
c20 1534 0 0.330853f
c21 1530 0 0.15028f
c22 1524 0 0.229821f
c23 1520 0 0.661063f
c24 1516 0 0.347854f
c25 1512 0 0.206527f
c26 1508 0 0.446029f
c27 1503 0 1.52944f
c28 1501 0 0.988028f
c29 1499 0 0.0714314f
c30 1498 0 0.111846f
c31 1464 0 9.76182f
c32 1304 0 1.67177f
c33 1293 0 11.6353f
c34 1284 0 0.598525f
c35 1280 0 0.525629f
c36 1278 0 0.312044f
c37 1270 0 0.0819925f
c38 1247 0 0.119988f
c39 1239 0 0.470345f
c40 1236 0 0.419654f
c41 1235 0 0.114225f
c42 1233 0 0.130792f
c43 1231 0 8.24928f
c44 1230 0 9.00295f
c45 1219 0 0.0962101f
c46 1208 0 0.329267f
c47 1206 0 0.667752f
c48 1204 0 0.0301061f
c49 1203 0 0.86994f
c50 1197 0 1.25664f
c51 1120 0 3.63084f
c52 1085 0 5.39118f
c53 1070 0 1.29937f
c54 1066 0 0.615713f
c55 1062 0 8.82846f
c56 1060 0 6.7868f
c57 1058 0 0.588747f
c58 1052 0 0.170971f
c59 1049 0 0.0533066f
c60 1047 0 0.0989764f
c61 973 0 7.73649f
c62 965 0 7.33964f
c63 962 0 11.7156f
c64 951 0 19.4869f
c65 940 0 19.4869f
c66 929 0 19.5155f
c67 918 0 19.4869f
c68 907 0 19.4869f
c69 896 0 11.8383f
c70 849 0 0.210878f
c71 812 0 0.0533066f
c72 801 0 0.12462f
c73 800 0 5.89132f
c74 797 0 0.104443f
c75 796 0 6.15803f
c76 17 0 0.486838f
c77 16 0 6.72918f
c78 7 0 0.152029f
c79 6 0 6.75738f
r80 1681 1684 0.00394881 
r81 1675 1676 0.337342 
r82 1674 1675 0.0141176 
r83 1673 1674 0.020305 
r84 1672 1673 0.0881046 
r85 1671 1672 0.0270153 
r86 1670 1671 0.0699782 
r87 1664 1678 0.00304139 
r88 1676 1664 0.00174292 
r89 1662 1664 0.461538 
r90 1628 1675 0.5 
r91 1625 1628 0.4025 
r92 1622 1674 0.5 
r93 1619 1622 0.28 
r94 1616 1671 0.5 
r95 1613 1616 1.455 
r96 1612 1670 0.00174292 
r97 1666 1612 0.00305011 
r98 1610 1612 0.461538 
r99 1606 1686 0.0039415 
r100 1684 1606 0.467422 
r101 1604 1606 0.5 
r102 1602 1604 0.181 
r103 1599 1602 0.17 
r104 1599 1676 1.5 
r105 1596 1597 0.5433 
r106 1595 1596 0.2247 
r107 1594 1597 0.099 
r108 1590 1592 0.0136564 
r109 1589 1590 0.0314855 
r110 1588 1589 0.0601494 
r111 1587 1588 0.0634357 
r112 1586 1587 0.0334274 
r113 1583 1586 0.01361 
r114 1572 1684 0.5 
r115 1569 1572 0.181 
r116 1566 1569 0.17 
r117 1566 1670 1.5 
r118 1564 1595 0.5293 
r119 1546 1548 0.12 
r120 1536 1539 3 
r121 1631 1536 0.0677429 
r122 1534 1536 3 
r123 1631 1526 0.1116 
r124 1659 1526 0.0028 
r125 1524 1526 6 
r126 1505 1548 0.02 
r127 1502 1546 0.02 
r128 1502 1503 2.92286 
r129 1543 1500 0.0456991 
r130 1500 1501 2.06857 
r131 1498 1501 0.0446983 
r132 1498 1499 0.0971429 
r133 1496 1499 0.0446983 
r134 1496 1541 1.64571 
r135 1464 1659 0.2648 
r136 1463 1659 0.2664 
r137 1462 1659 0.2664 
r138 1297 1516 1 
r139 1293 1520 1.2 
r140 1290 1293 7.59226 
r141 1276 1530 3 
r142 1273 1276 0.2885 
r143 1273 1512 2 
r144 1270 1273 2.755 
r145 1269 1270 1.8985 
r146 1268 1269 0.425 
r147 1524 1260 0.000149533 
r148 1564 1259 0.0555566 
r149 1259 1260 6 
r150 1258 1539 0.0444444 
r151 1534 1258 7.40741e-05 
r152 1564 1257 0.0279474 
r153 1257 1258 1.5 
r154 1512 1256 0.000233918 
r155 1596 1256 2 
r156 1520 1254 0.000114123 
r157 1595 1254 1.2 
r158 1516 1252 0.000100503 
r159 1597 1252 1 
r160 1530 1250 0.000299625 
r161 1596 1250 3 
r162 1543 1247 6 
r163 1541 1244 0.0557895 
r164 1244 1268 3 
r165 1284 1243 0.585 
r166 1508 1243 6 
r167 1508 1240 0.6875 
r168 1240 1290 6 
r169 1280 1239 0.228421 
r170 1673 1239 0.5 
r171 1505 1236 0.787143 
r172 1236 1269 6 
r173 1235 1304 0.0561431 
r174 1503 1235 6 
r175 1278 1233 0.0621053 
r176 1672 1233 2 
r177 1231 1297 0.219259 
r178 1230 1276 0.0845 
r179 1219 1268 0.8885 
r180 1218 1662 0.526 
r181 1218 1231 0.0447005 
r182 1217 1662 2.122 
r183 1217 1230 0.0446983 
r184 1206 1208 0.81913 
r185 1205 1208 0.309565 
r186 1203 1205 0.0446983 
r187 1203 1204 2.21913 
r188 1201 1204 0.0447246 
r189 1201 1304 4.4 
r190 1196 1247 0.0422277 
r191 1196 1197 1.5875 
r192 1192 1610 2.122 
r193 1192 1219 0.0446983 
r194 1122 1123 0.490516 
r195 1121 1122 0.232864 
r196 1120 1121 0.279437 
r197 1111 1112 0.279231 
r198 1110 1111 0.2665 
r199 1101 1102 0.273962 
r200 1100 1101 0.261472 
r201 1087 1088 0.278131 
r202 1084 1561 0.0526456 
r203 1557 1084 0.0552365 
r204 1588 1084 0.00227273 
r205 1586 1082 3 
r206 1586 1080 0.666667 
r207 1587 1078 1.5 
r208 1589 1076 1.5 