* File: pc3t05d.dist.sp.pex
* Created: Sun Jul  4 12:51:52 2010
* Program "Calibre xRC"
* Version "v2008.4_19.14"
* Nominal Temperature: 27C
* Circuit Temperature: 27C
* 
.subckt PM_PC3T05D%PAD 21 50 79 108 137 166 218 242 266 290 320 326 389 428 452
+ 459
c0 467 0 29.5735f
c1 460 0 83.0964f
c2 459 0 64.3341f
c3 456 0 159.215f
c4 451 0 0.991473f
c5 444 0 9.95468f
c6 434 0 13.8464f
c7 425 0 0.117887f
c8 423 0 212.854f
c9 408 0 15.3329f
c10 397 0 46.9214f
c11 392 0 65.4578f
c12 390 0 15.8911f
c13 389 0 1.04872f
c14 388 0 3.88278f
c15 326 0 13.3728f
c16 320 0 13.3831f
c17 290 0 13.3635f
c18 266 0 13.3725f
c19 242 0 13.6388f
c20 218 0 13.36f
c21 176 0 7.52869f
c22 166 0 2.98552f
c23 149 0 6.78371f
c24 137 0 2.98621f
c25 120 0 6.78371f
c26 108 0 2.98621f
c27 91 0 6.78371f
c28 79 0 2.98621f
c29 62 0 6.78371f
c30 50 0 2.9855f
c31 33 0 6.78371f
c32 21 0 2.98537f
c33 4 0 6.78371f
r34 467 468 0.118407 
r35 466 467 0.118407 
r36 465 466 0.056883 
r37 464 465 0.061524 
r38 463 464 0.118407 
r39 462 463 0.0830354 
r40 461 462 0.0353716 
r41 459 460 0.0124825 
r42 457 459 0.000593149 
r43 456 457 0.0669731 
r44 451 452 0.00916 
r45 444 462 0.0545455 
r46 434 465 0.015 
r47 425 428 0.00916 
r48 425 451 2 
r49 423 434 0.0264274 
r50 421 423 0.147454 
r51 421 422 0.0288462 
r52 415 416 0.00752787 
r53 414 415 0.021023 
r54 412 414 0.000537705 
r55 412 456 0.00162999 
r56 410 412 0.000537705 
r57 408 410 0.0285508 
r58 399 451 0.1388 
r59 398 399 0.132996 
r60 397 398 0.0171733 
r61 394 395 0.0171733 
r62 393 394 0.0171733 
r63 392 393 0.0171733 
r64 391 397 0.0142401 
r65 391 395 0.00293318 
r66 390 422 0.00646891 
r67 390 392 0.00818451 
r68 388 444 0.202116 
r69 388 389 0.0147368 
r70 315 320 0.0072093 
r71 392 315 0.0566038 
r72 313 326 0.0072093 
r73 398 313 0.0566038 
r74 286 290 0.0072093 
r75 397 286 0.0566038 
r76 262 266 0.0072093 
r77 395 262 0.0566038 
r78 238 242 0.0072093 
r79 394 238 0.0566038 
r80 214 218 0.0072093 
r81 393 214 0.0566038 
r82 194 197 0.0022831 
r83 416 194 0.0375475 
r84 194 457 0.00547945 
r85 414 193 0.00210084 
r86 191 193 0.000537705 
r87 410 191 0.00210084 
r88 193 182 0.0105115 
r89 415 182 0.00712251 
r90 178 197 0.0187738 
r91 182 178 0.00376393 
r92 416 178 0.00712251 
r93 176 191 0.0142754 
r94 408 176 0.00356125 
r95 460 173 0.345778 
r96 172 468 0.0220132 
r97 172 173 0.319822 
r98 166 153 0.00249413 
r99 173 153 0.0425532 
r100 149 166 0.00249413 
r101 173 149 0.0425532 
r102 460 144 0.345778 
r103 143 467 0.0220132 
r104 143 144 0.319822 
r105 137 124 0.00249413 
r106 144 124 0.0425532 
r107 120 137 0.00249413 
r108 144 120 0.0425532 
r109 460 115 0.345778 
r110 114 466 0.0220132 
r111 114 115 0.319822 
r112 108 95 0.00249413 
r113 115 95 0.0425532 
r114 91 108 0.00249413 
r115 115 91 0.0425532 
r116 460 86 0.345778 
r117 85 464 0.0220132 
r118 85 86 0.319822 
r119 79 66 0.00249413 
r120 86 66 0.0425532 
r121 62 79 0.00249413 
r122 86 62 0.0425532 
r123 460 57 0.345778 
r124 56 463 0.0220132 
r125 56 57 0.319822 
r126 50 37 0.00249413 
r127 57 37 0.0425532 
r128 33 50 0.00249413 
r129 57 33 0.0425532 
r130 460 28 0.345778 
r131 27 461 0.0220132 
r132 27 28 0.319822 
r133 21 8 0.00249413 
r134 28 8 0.0425532 
r135 4 21 0.00249413 
r136 28 4 0.0425532 
.ends

.subckt PM_PC3T05D%noxref_2 8 18
c0 20 0 4.82229f
c1 18 0 0.98902f
c2 8 0 6.70476f
r3 18 20 0.158105 
r4 20 8 0.158526 
.ends

.subckt PM_PC3T05D%net_m20_VSSO_res 23 101 105 109 113 117
c0 117 0 0.519409f
c1 113 0 0.519409f
c2 109 0 0.519409f
c3 105 0 0.722728f
c4 101 0 0.73297f
c5 97 0 0.840865f
c6 91 0 0.0544917f
c7 57 0 0.0628754f
c8 47 0 0.236393f
c9 46 0 0.19588f
c10 45 0 0.135544f
c11 44 0 0.100649f
c12 43 0 0.162435f
c13 23 0 0.561629f
c14 21 0 0.0477785f
c15 20 0 0.363804f
r16 92 97 0.0552941 
r17 91 92 0.02 
r18 90 91 0.124706 
r19 58 101 85 
r20 56 117 85 
r21 56 57 0.93595 
r22 55 113 85 
r23 54 55 1.5553 
r24 53 97 2.20253 
r25 52 54 6.2212 
r26 52 53 1.5553 
r27 51 109 85 
r28 50 52 10.0922 
r29 50 51 1.5553 
r30 49 105 85 
r31 48 57 2.23066 
r32 47 58 3.37824 
r33 47 48 10.8571 
r34 46 54 4.70046 
r35 45 57 2.23066 
r36 45 46 9 
r37 44 49 3.37824 
r38 43 50 2.90323 
r39 43 44 10.8571 
r40 22 23 0.18 
r41 90 21 0.0446983 
r42 20 22 0.0446983 
r43 20 21 0.521176 
.ends

.subckt PM_PC3T05D%U29_padr 40 44 52 118 120 122 164 172
c0 265 0 16.1423f
c1 259 0 9.28743f
c2 252 0 1.97954f
c3 248 0 15.9223f
c4 234 0 0.145078f
c5 233 0 0.0372956f
c6 232 0 0.0478417f
c7 231 0 0.0873247f
c8 228 0 6.60484f
c9 225 0 0.611623f
c10 224 0 0.165574f
c11 221 0 0.145688f
c12 217 0 5.63931f
c13 215 0 0.516633f
c14 213 0 0.0693973f
c15 212 0 0.207306f
c16 211 0 0.411447f
c17 207 0 0.694286f
c18 201 0 1.02773f
c19 195 0 2.02756f
c20 189 0 0.54384f
c21 177 0 0.420457f
c22 172 0 1.0699f
c23 171 0 0.703814f
c24 170 0 0.0771694f
c25 169 0 0.490096f
c26 166 0 0.669188f
c27 164 0 5.5788e-21
c28 145 0 0.0984887f
c29 138 0 0.0817276f
c30 130 0 16.0807f
c31 122 0 1.0541f
c32 120 0 0.572967f
c33 118 0 1.02328f
c34 92 0 0.134724f
c35 88 0 0.430672f
c36 85 0 0.564034f
c37 84 0 0.372644f
c38 82 0 0.114634f
c39 79 0 1.71151f
c40 78 0 0.632067f
c41 75 0 0.397157f
c42 72 0 0.0453459f
c43 71 0 0.0323182f
c44 70 0 0.0845293f
c45 65 0 0.13853f
c46 62 0 0.0978874f
c47 58 0 0.315524f
c48 56 0 0.0695685f
c49 55 0 0.0982496f
c50 52 0 1.2618f
c51 49 0 0.0688621f
c52 48 0 0.372832f
c53 44 0 2.39984f
c54 40 0 2.31489f
r55 265 250 0.172857 
r56 248 250 6 
r57 244 246 3.984 
r58 234 236 3 
r59 233 234 0.109474 
r60 233 231 0.0456991 
r61 231 232 0.147143 
r62 228 265 2 
r63 226 232 0.0446983 
r64 226 228 10.3129 
r65 225 236 0.30381 
r66 219 221 0.10375 
r67 259 217 0.185079 
r68 215 217 1.2 
r69 214 215 0.482857 
r70 212 214 0.0446983 
r71 212 213 0.125714 
r72 211 213 0.0446983 
r73 210 225 0.0446983 
r74 210 211 0.407619 
r75 207 252 6 
r76 205 224 0.15871 
r77 205 207 0.867097 
r78 203 248 1.74667 
r79 246 203 9.24667 
r80 201 203 6 
r81 224 201 1.56387 
r82 188 221 0.02 
r83 188 189 0.755 
r84 184 219 0.02 
r85 179 252 2.38452 
r86 171 259 0.18836 
r87 171 172 0.0147368 
r88 169 179 0.0446983 
r89 169 170 0.619355 
r90 166 170 0.0456388 
r91 165 177 0.0200258 
r92 165 166 0.791 
r93 164 177 0.00412903 
r94 129 130 1.07733 
r95 110 122 168.333 
r96 110 145 3.92502 
r97 105 120 51.6667 
r98 104 105 1.66667 
r99 97 118 168.333 
r100 138 97 3.6393 
r101 195 92 6 
r102 89 198 0.8025 
r103 195 89 2.8475 
r104 89 130 6 
r105 88 145 0.77 
r106 198 88 6 
r107 85 193 1.2525 
r108 85 246 6 
r109 84 138 0.7825 
r110 193 84 6 
r111 189 82 6 
r112 79 186 0.8 
r113 184 79 2.045 
r114 79 129 6 
r115 186 78 6 
r116 75 182 0.482667 
r117 75 244 6 
r118 74 129 3.112 
r119 182 74 6 
r120 72 92 0.05 
r121 68 70 0.12 
r122 68 78 0.8825 
r123 66 82 0.04375 
r124 65 66 0.02 
r125 63 65 0.10375 
r126 62 72 0.0446983 
r127 61 71 0.0338756 
r128 61 62 0.1875 
r129 58 104 1.16667 
r130 57 71 0.0338756 
r131 57 58 0.245 
r132 55 71 0.00880368 
r133 55 56 0.25 
r134 51 56 0.0446983 
r135 51 52 1.2575 
r136 50 52 1.3775 
r137 48 50 0.0447588 
r138 48 49 0.544 
r139 70 44 2.375 
r140 39 63 0.02 
r141 39 40 1.40875 
r142 38 49 0.0447588 
r143 38 40 1.3775 
.ends

.subckt PM_PC3T05D%net_m70_VDDO_res 8 39
c0 39 0 2.1098f
c1 34 0 1.31643f
c2 18 0 0.0804947f
c3 15 0 0.168684f
c4 10 0 0.0679088f
c5 9 0 0.729319f
c6 8 0 0.363896f
c7 6 0 0.183066f
r8 36 39 3.87662 
r9 17 34 43.5 
r10 16 34 49.5 
r11 18 15 16.5 
r12 11 18 4.13452 
r13 10 16 3.35237 
r14 9 15 3.35237 
r15 9 10 56.025 
r16 11 8 6.95493 
r17 7 36 1.62175 
r18 7 8 5.625 
r19 6 17 3.35237 
r20 6 8 5.625 
.ends

.subckt PM_PC3T05D%VSSO 401 426 430 480 802 806 813 842 849 861 876 878 883 888
+ 894 903 909 915 921 930 936 942 951 957 963 972 978 984 991 1000 1006 1018 1071
+ 1077 1081 1087
c0 1087 0 32.1287f
c1 1074 0 1.98471f
c2 1071 0 46.8229f
c3 1050 0 7.93913f
c4 1048 0 6.95922f
c5 1043 0 6.95977f
c6 1038 0 6.96055f
c7 1033 0 6.96135f
c8 1028 0 6.96246f
c9 1018 0 0.00201521f
c10 1013 0 8.95235f
c11 1006 0 0.342408f
c12 991 0 0.339768f
c13 984 0 1.36597f
c14 978 0 1.40025f
c15 963 0 1.35721f
c16 957 0 1.35737f
c17 942 0 2.01154f
c18 936 0 1.61252f
c19 921 0 0.968621f
c20 915 0 0.84021f
c21 909 0 1.38502f
c22 894 0 2.02569f
c23 888 0 1.55543f
c24 883 0 1.69059f
c25 881 0 0.237135f
c26 878 0 0.00103378f
c27 876 0 8.25608e-19
c28 874 0 8.96457f
c29 859 0 7.86103f
c30 855 0 1.27875f
c31 845 0 1.65707f
c32 842 0 58.2594f
c33 809 0 1.34161f
c34 806 0 10.6383f
c35 794 0 0.115216f
c36 788 0 4.90384f
c37 785 0 0.112261f
c38 784 0 0.0401513f
c39 783 0 1.55614f
c40 781 0 0.0510217f
c41 780 0 0.328516f
c42 779 0 0.651344f
c43 773 0 0.572684f
c44 769 0 0.708327f
c45 767 0 0.0415494f
c46 766 0 3.2491f
c47 764 0 0.383003f
c48 763 0 0.713156f
c49 762 0 0.303464f
c50 761 0 3.2754f
c51 760 0 0.383249f
c52 759 0 2.10295f
c53 757 0 0.0503886f
c54 756 0 0.19079f
c55 755 0 0.343029f
c56 722 0 0.122915f
c57 721 0 8.88886f
c58 688 0 0.264591f
c59 684 0 7.03694f
c60 680 0 0.146306f
c61 480 0 0.593769f
c62 451 0 1.09054f
c63 449 0 0.102291f
c64 447 0 0.0361692f
c65 445 0 1.6765f
c66 444 0 0.0407892f
c67 443 0 0.346472f
c68 430 0 0.889314f
c69 429 0 0.117657f
c70 426 0 0.557156f
c71 422 0 0.0481945f
c72 421 0 0.441245f
c73 401 0 0.114597f
c74 394 0 0.121644f
c75 315 0 5.73116f
c76 282 0 14.0332f
c77 232 0 14.0334f
c78 182 0 14.0339f
c79 132 0 14.0355f
c80 82 0 14.0371f
c81 10 0 0.146306f
r82 1085 1087 0.00282778 
r83 1084 1085 0.355444 
r84 1081 1084 0.00283333 
r85 1076 1078 0.0106667 
r86 1076 1077 0.02 
r87 1074 1076 0.0143333 
r88 1068 1069 0.125508 
r89 1067 1068 0.0406952 
r90 1066 1067 0.0396791 
r91 1065 1066 0.043262 
r92 1064 1065 0.0347594 
r93 1063 1064 0.0198396 
r94 1062 1063 0.0672192 
r95 1061 1062 0.0253476 
r96 1060 1061 0.0359893 
r97 1059 1060 0.0374332 
r98 1058 1059 0.0226738 
r99 1057 1058 0.0233155 
r100 1056 1057 0.0203209 
r101 1055 1056 0.0213904 
r102 1054 1074 0.02 
r103 1054 1055 0.0720856 
r104 1022 1023 0.0140639 
r105 1017 1018 0.0126606 
r106 1050 1015 0.0113761 
r107 1013 1015 0.0638298 
r108 1010 1069 2 
r109 1006 1010 0.000380952 
r110 991 1068 2 
r111 987 1067 0.6 
r112 984 987 0.285 
r113 981 1066 0.6 
r114 978 981 0.32 
r115 966 1065 0.6 
r116 963 966 0.36 
r117 960 1064 0.6 
r118 957 960 0.37 
r119 945 1062 0.6 
r120 942 945 0.9975 
r121 939 1061 0.6 
r122 936 939 0.995 
r123 924 1060 0.6 
r124 921 924 0.3425 
r125 918 1059 0.75 
r126 915 918 0.04 
r127 912 1058 0.6 
r128 909 912 0.365 
r129 897 1057 0.6 
r130 894 897 0.194286 
r131 891 1056 0.6 
r132 888 891 0.3175 
r133 885 1055 0.666667 
r134 883 885 0.96 
r135 876 1017 0.013211 
r136 1013 876 0.000917431 
r137 874 876 0.000913242 
r138 874 1022 0.0638298 
r139 860 861 0.02 
r140 859 1022 0.0113242 
r141 857 859 0.0327869 
r142 857 860 0.0166784 
r143 855 857 0.029258 
r144 852 1085 0.357143 
r145 849 852 0.21 
r146 847 1071 0.00544385 
r147 1069 847 0.0345455 
r148 845 847 1 
r149 845 849 0.445 
r150 840 842 0.00612761 
r151 840 1050 0.0327869 
r152 1000 838 0.130435 
r153 838 1048 0.00301741 
r154 1045 838 0.00301741 
r155 836 838 0.0266667 
r156 836 840 0.0287785 
r157 972 835 0.130435 
r158 835 1043 0.00301741 
r159 1040 835 0.00301741 
r160 833 835 0.0266667 
r161 833 836 0.0242129 
r162 951 832 0.130435 
r163 832 1038 0.00301741 
r164 1035 832 0.00301741 
r165 830 832 0.0266667 
r166 830 833 0.0242129 
r167 829 830 0.000615582 
r168 930 828 0.130435 
r169 828 1033 0.00301741 
r170 1030 828 0.00301741 
r171 826 828 0.0266667 
r172 826 829 0.0235973 
r173 903 825 0.130435 
r174 825 1028 0.00301741 
r175 1025 825 0.00301741 
r176 823 825 0.0266667 
r177 823 826 0.0242129 
r178 822 855 0.02 
r179 822 823 0.0277012 
r180 860 819 0.429445 
r181 816 1084 0.357143 
r182 813 816 0.21 
r183 811 1080 0.144409 
r184 1078 811 0.034 
r185 809 811 1 
r186 809 813 0.445 
r187 797 881 3 
r188 794 797 0.0536842 
r189 787 794 0.02 
r190 787 788 6.35789 
r191 784 785 0.1275 
r192 783 784 0.0448391 
r193 782 783 2.75862 
r194 780 782 0.044715 
r195 780 781 0.466667 
r196 779 781 0.0450432 
r197 1080 779 1.29371 
r198 773 794 0.02 
r199 773 774 0.746316 
r200 771 1018 0.230275 
r201 769 1013 0.210275 
r202 767 881 0.109474 
r203 765 878 0.229041 
r204 765 766 0.0863581 
r205 763 874 0.209132 
r206 763 764 0.0863581 
r207 771 761 0.0861375 
r208 761 762 0.132033 
r209 769 760 0.0861375 
r210 767 759 0.0420103 
r211 758 759 3.01467 
r212 756 758 0.0446983 
r213 756 757 0.289333 
r214 755 757 0.0447588 
r215 722 876 0.128 
r216 721 762 0.0473573 
r217 721 876 0.126 
r218 688 722 0.0473573 
r219 766 688 0.132033 
r220 684 876 0.126 
r221 683 883 1.1475 
r222 681 876 0.128 
r223 680 681 0.0473573 
r224 680 764 0.250407 
r225 788 453 6 
r226 1063 451 0.75 
r227 785 449 3 
r228 447 480 0.0494737 
r229 774 447 2 
r230 444 451 0.437895 
r231 444 445 0.0407126 
r232 683 443 0.0338756 
r233 429 453 0.0413535 
r234 429 430 1.14783 
r235 425 426 0.221176 
r236 421 425 0.0446983 
r237 421 422 0.608235 
r238 419 422 0.0446983 
r239 419 445 2.01647 
r240 400 443 0.00880368 
r241 400 401 0.1375 
r242 394 755 0.6025 
r243 394 449 0.0265396 
r244 318 806 0.0419737 
r245 802 318 0.0413851 
r246 829 318 0.00128205 
r247 819 315 2.21804 
r248 315 1078 0.6 
r249 1000 282 0.00313778 
r250 1048 282 0.0652174 
r251 1015 271 0.0141284 
r252 271 1017 0.0652174 
r253 972 232 0.00313778 
r254 1043 232 0.0652174 
r255 222 1000 0.00313778 
r256 1045 222 0.0652174 
r257 951 182 0.00313778 
r258 1038 182 0.0652174 
r259 172 972 0.00313778 
r260 1040 172 0.0652174 
r261 930 132 0.00313778 
r262 1033 132 0.0652174 
r263 122 951 0.00313778 
r264 1035 122 0.0652174 
r265 903 82 0.00313778 
r266 1028 82 0.0652174 
r267 72 930 0.00313778 
r268 1030 72 0.0652174 
r269 32 878 0.0126027 
r270 876 32 0.0131507 
r271 1023 32 0.0652174 
r272 22 903 0.00313778 
r273 1025 22 0.0652174 
r274 10 760 0.250407 
r275 10 684 0.0473573 
.ends

.subckt PM_PC3T05D%VSS 759 799 821 846 851 863 865 870
c0 870 0 91.8408f
c1 863 0 57.8984f
c2 849 0 2.37405f
c3 846 0 0.00368951f
c4 843 0 1.24361f
c5 829 0 16.5883f
c6 817 0 1.88726f
c7 810 0 16.3206f
c8 796 0 1.45963f
c9 773 0 24.8375f
c10 771 0 0.0842555f
c11 770 0 10.3909f
c12 769 0 0.0657505f
c13 768 0 7.77081f
c14 766 0 0.184939f
c15 763 0 0.0372194f
c16 759 0 4.21856f
c17 756 0 0.144425f
c18 754 0 0.578419f
c19 747 0 8.75359f
c20 745 0 0.194283f
c21 744 0 0.100669f
c22 743 0 1.98794f
c23 620 0 2.22371f
c24 616 0 2.49386f
c25 612 0 1.36882f
c26 610 0 0.257163f
c27 608 0 0.276497f
c28 605 0 26.7791f
c29 599 0 0.816164f
c30 598 0 6.34069f
c31 592 0 2.03915f
c32 586 0 0.137389f
c33 585 0 2.49119f
c34 584 0 0.154374f
c35 583 0 2.24749f
c36 539 0 0.162892f
c37 537 0 0.72248f
c38 535 0 0.203897f
c39 510 0 2.94295f
c40 496 0 3.05881f
c41 494 0 0.031054f
c42 491 0 0.571035f
c43 490 0 6.9112f
c44 489 0 0.161087f
c45 474 0 3.7501f
c46 471 0 2.96224f
r47 865 868 0.000703354 
r48 861 863 0.00318245 
r49 860 861 0.00119641 
r50 859 860 0.0758524 
r51 858 859 0.0344168 
r52 857 858 0.167059 
r53 856 857 0.128574 
r54 855 856 0.0141176 
r55 854 855 0.089651 
r56 851 854 0.00438684 
r57 849 861 0.461538 
r58 843 846 1.28857 
r59 843 859 1.5 
r60 837 857 0.0535714 
r61 824 860 0.428571 
r62 821 824 0.189 
r63 819 870 0.000702051 
r64 868 819 0.0832563 
r65 817 819 0.131579 
r66 817 821 0.013 
r67 814 815 0.56934 
r68 813 814 1.12447 
r69 810 813 0.628223 
r70 810 858 0.3 
r71 802 854 0.428571 
r72 799 802 0.189 
r73 796 799 0.013 
r74 796 868 0.131579 
r75 770 771 0.0338756 
r76 768 837 2.8715 
r77 768 769 0.0338756 
r78 762 771 0.0338756 
r79 761 769 0.0338756 
r80 759 841 2.59036 
r81 839 759 1.07807 
r82 829 759 1.552 
r83 758 771 0.00880368 
r84 758 759 0.958 
r85 757 769 0.00880368 
r86 757 759 0.986 
r87 766 756 0.0632911 
r88 756 754 0.0574488 
r89 753 763 0.0448201 
r90 750 849 1.518 
r91 749 849 0.426 
r92 747 841 1.08482 
r93 745 839 1.06072 
r94 744 829 1.5515 
r95 743 744 0.0448201 
r96 743 753 2.13041 
r97 770 622 0.733 
r98 759 622 1.93 
r99 620 783 3 
r100 617 837 1.612 
r101 763 617 1.283 
r102 617 856 1.5 
r103 839 616 1 
r104 783 612 0.24 
r105 814 612 1.5 
r106 622 610 3 
r107 813 610 3 
r108 608 841 3 
r109 815 608 3 
r110 605 807 1.1314 
r111 605 855 0.125 
r112 604 616 0.0075 
r113 625 604 0.056 
r114 807 604 0.24 
r115 602 766 0.0155975 
r116 773 602 1 
r117 600 773 0.9662 
r118 600 625 0.02 
r119 599 762 0.5005 
r120 750 599 0.0446983 
r121 598 761 0.5005 
r122 749 598 0.0446983 
r123 597 620 0.830244 
r124 596 620 0.573659 
r125 591 592 1.37048 
r126 586 597 0.0448242 
r127 586 587 0.678222 
r128 585 592 0.0447675 
r129 585 587 0.650667 
r130 584 596 0.0446983 
r131 583 591 0.0447067 
r132 583 584 1.45854 
r133 538 539 0.147619 
r134 534 535 0.14988 
r135 747 534 0.0380723 
r136 531 533 0.143333 
r137 745 530 0.0385542 
r138 528 530 0.14506 
r139 759 527 0.159 
r140 510 759 0.159 
r141 509 539 0.02 
r142 509 527 1.247 
r143 508 535 0.02 
r144 508 510 1.243 
r145 759 507 0.192 
r146 505 759 0.192 
r147 504 505 0.342 
r148 759 504 0.192 
r149 502 759 0.192 
r150 501 502 0.342 
r151 759 501 0.192 
r152 499 759 0.192 
r153 498 499 0.342 
r154 759 498 0.192 
r155 496 759 0.192 
r156 495 538 0.02 
r157 495 507 1.214 
r158 494 537 0.04 
r159 494 496 0.243 
r160 492 534 0.02 
r161 492 537 0.938734 
r162 602 491 0.102486 
r163 490 538 0.0380952 
r164 490 491 4.80524 
r165 489 754 0.555238 
r166 489 533 0.0380952 
r167 759 485 0.159 
r168 483 759 0.159 
r169 482 483 0.408 
r170 759 482 0.159 
r171 480 759 0.159 
r172 479 480 0.408 
r173 759 479 0.159 
r174 477 759 0.159 
r175 476 477 0.408 
r176 759 476 0.159 
r177 474 759 0.159 
r178 473 533 0.02 
r179 473 485 1.247 
r180 472 530 0.02 
r181 472 474 1.243 
r182 471 531 0.02 
r183 470 528 0.02 
r184 470 471 4.69271 
.ends

.subckt PM_PC3T05D%U29_U42_r1 53 58 66
c0 135 0 0.252886f
c1 131 0 0.130993f
c2 125 0 2.82679f
c3 116 0 0.432351f
c4 110 0 0.304369f
c5 108 0 0.379151f
c6 106 0 0.0792102f
c7 105 0 0.329567f
c8 102 0 6.54958f
c9 99 0 0.181486f
c10 98 0 9.1289f
c11 97 0 0.629329f
c12 96 0 0.299845f
c13 93 0 0.136486f
c14 87 0 0.0903556f
c15 79 0 0.171304f
c16 73 0 0.678581f
c17 67 0 0.305615f
c18 66 0 0.278026f
c19 61 0 0.163718f
c20 60 0 0.550917f
c21 58 0 3.10095f
c22 53 0 3.10208f
r23 115 135 0.00341463 
r24 113 115 3 
r25 113 116 0.017 
r26 111 113 0.0283 
r27 109 116 0.02 
r28 109 110 0.662857 
r29 108 111 0.02 
r30 107 108 0.102305 
r31 105 110 0.0446983 
r32 105 106 0.352857 
r33 102 131 6 
r34 100 106 0.0448488 
r35 100 102 6.78194 
r36 98 107 0.064391 
r37 98 99 10.818 
r38 97 99 0.0661591 
r39 127 96 0.0521951 
r40 95 97 0.11639 
r41 95 96 3 
r42 91 131 0.130323 
r43 90 93 0.153548 
r44 90 91 0.02 
r45 87 125 6 
r46 85 93 0.02 
r47 85 87 0.132903 
r48 84 125 3.99613 
r49 83 84 0.026898 
r50 79 83 0.10143 
r51 79 66 0.106667 
r52 61 73 1.85294 
r53 60 67 1.85294 
r54 55 61 3.88985 
r55 55 58 183.96 
r56 50 60 3.88985 
r57 50 53 183.96 
r58 73 27 0.00142683 
r59 135 27 3 
r60 67 9 0.00142683 
r61 127 9 3 
.ends

.subckt PM_PC3T05D%U30_ngate 106 115 122 129 136 173 175 193 235 240 245 251
c0 325 0 0.445926f
c1 317 0 16.5543f
c2 310 0 0.533624f
c3 303 0 1.13758f
c4 300 0 1.4773f
c5 296 0 1.11687f
c6 295 0 1.16894f
c7 294 0 0.0674234f
c8 291 0 0.211175f
c9 289 0 5.47037f
c10 285 0 0.137403f
c11 279 0 0.719773f
c12 274 0 2.99555f
c13 258 0 0.533624f
c14 255 0 0.606155f
c15 254 0 0.166949f
c16 253 0 0.606155f
c17 252 0 0.166892f
c18 251 0 3.04886f
c19 245 0 3.04886f
c20 240 0 3.04886f
c21 235 0 3.04886f
c22 193 0 1.96078f
c23 183 0 0.432413f
c24 175 0 0.595958f
c25 173 0 0.831149f
c26 170 0 0.149707f
c27 167 0 0.145613f
c28 158 0 1.99646f
c29 155 0 2.78887f
c30 148 0 3.13562f
c31 146 0 0.0325297f
c32 143 0 0.0261329f
c33 136 0 1.05413f
c34 134 0 0.0760973f
c35 133 0 0.411599f
c36 129 0 1.33816f
c37 126 0 0.362266f
c38 122 0 1.34432f
c39 120 0 0.0712321f
c40 119 0 0.246444f
c41 115 0 1.46684f
c42 113 0 0.677983f
c43 111 0 0.0621076f
c44 110 0 0.332588f
c45 106 0 2.04929f
c46 62 0 0.449025f
r47 316 317 6.66267 
r48 313 316 1.85067 
r49 303 306 0.0665098 
r50 303 329 1.5 
r51 299 325 0.00536585 
r52 322 299 0.0502439 
r53 297 299 1.5 
r54 297 300 0.122734 
r55 297 296 0.109057 
r56 295 306 0.02 
r57 295 296 1.378 
r58 300 294 1.7 
r59 313 291 6 
r60 289 291 6 
r61 288 294 0.0450816 
r62 288 289 7.68471 
r63 285 283 0.0545192 
r64 279 282 0.0447588 
r65 279 280 0.876 
r66 310 271 0.00142683 
r67 268 310 0.0277856 
r68 255 310 5.05882 
r69 254 310 5.05882 
r70 253 258 5.05882 
r71 252 258 5.05882 
r72 247 255 3.88985 
r73 247 251 183.96 
r74 242 254 3.88985 
r75 242 245 183.96 
r76 237 253 3.88985 
r77 237 240 183.96 
r78 232 252 3.88985 
r79 232 235 183.96 
r80 170 175 60 
r81 170 190 3.77986 
r82 167 173 85 
r83 167 183 3.53757 
r84 285 158 6 
r85 283 155 2.2175 
r86 282 155 1.515 
r87 155 317 6 
r88 193 154 1.505 
r89 280 154 6 
r90 183 152 0.3325 
r91 274 152 6 
r92 149 277 2.2825 
r93 274 149 1.32 
r94 149 316 6 
r95 148 190 3.7825 
r96 277 148 6 
r97 145 158 3.105 
r98 145 146 0.0329896 
r99 144 193 1.3075 
r100 140 142 0.06125 
r101 135 146 0.0329896 
r102 135 136 1.2375 
r103 133 146 0.00955498 
r104 133 134 0.526452 
r105 128 134 0.044713 
r106 128 129 1.2375 
r107 127 143 0.0338756 
r108 126 144 0.0446983 
r109 126 127 0.51 
r110 121 143 0.00880368 
r111 121 122 1.3075 
r112 120 142 0.04 
r113 119 143 0.0338756 
r114 119 120 0.4325 
r115 114 142 0.02 
r116 114 115 1.4425 
r117 113 140 0.02 
r118 112 113 1.08375 
r119 110 112 0.0450043 
r120 110 111 0.388108 
r121 105 111 0.0450043 
r122 105 106 1.93125 
r123 329 62 0.00292683 
r124 62 271 3 
r125 258 38 0.00142683 
r126 325 38 3 
r127 26 329 0.0526829 
r128 26 268 3 
r129 258 9 0.0277856 
r130 322 9 3 
.ends

.subckt PM_PC3T05D%U17_ngate2 90 100 105 112 179 184 189 195
c0 262 0 0.436412f
c1 253 0 0.533727f
c2 250 0 0.298875f
c3 249 0 1.14959f
c4 245 0 1.4886f
c5 244 0 1.14544f
c6 241 0 0.0625815f
c7 240 0 4.78597f
c8 236 0 4.16424f
c9 234 0 0.639802f
c10 224 0 0.140349f
c11 220 0 0.189195f
c12 203 0 0.533727f
c13 202 0 0.188377f
c14 199 0 0.606098f
c15 198 0 0.166949f
c16 197 0 0.603155f
c17 196 0 0.166325f
c18 195 0 3.04886f
c19 189 0 3.04886f
c20 184 0 3.04886f
c21 179 0 3.04886f
c22 144 0 0.311365f
c23 139 0 12.6301f
c24 129 0 0.684859f
c25 128 0 3.16673f
c26 123 0 3.11933f
c27 122 0 0.13299f
c28 120 0 0.0343464f
c29 117 0 0.0822206f
c30 116 0 0.237389f
c31 112 0 0.47622f
c32 110 0 0.0284138f
c33 109 0 0.038923f
c34 105 0 0.493703f
c35 100 0 1.53264f
c36 98 0 0.0691107f
c37 97 0 0.123067f
c38 95 0 0.672854f
c39 94 0 3.58736f
c40 90 0 2.22927f
c41 62 0 0.432063f
r42 247 249 0.0890938 
r43 247 266 1.5 
r44 246 250 0.110781 
r45 245 249 0.0868765 
r46 245 246 1.379 
r47 244 250 0.0239861 
r48 243 262 0.000487805 
r49 259 243 0.055122 
r50 242 244 0.0892583 
r51 242 243 1.5 
r52 240 250 0.110781 
r53 240 241 5.262 
r54 236 238 6 
r55 235 241 0.0458951 
r56 235 236 6.73067 
r57 234 238 0.708571 
r58 226 229 0.58625 
r59 224 226 0.0448391 
r60 224 225 0.0717241 
r61 220 222 6 
r62 219 234 0.0446983 
r63 219 220 0.254286 
r64 253 216 0.00142683 
r65 213 253 0.0277856 
r66 202 222 0.1025 
r67 199 253 5.05882 
r68 198 253 5.05882 
r69 197 203 5.05882 
r70 196 203 5.05882 
r71 191 199 3.88985 
r72 191 195 183.96 
r73 186 198 3.88985 
r74 186 189 183.96 
r75 181 197 3.88985 
r76 181 184 183.96 
r77 176 196 3.88985 
r78 176 179 183.96 
r79 143 144 0.245 
r80 202 143 0.04 
r81 129 232 0.742857 
r82 129 139 6 
r83 232 128 6 
r84 126 139 1.12267 
r85 229 126 6 
r86 123 229 2.98125 
r87 123 144 6 
r88 225 122 6 
r89 118 128 4.21429 
r90 117 122 0.0468966 
r91 120 112 0.545714 
r92 110 120 0.0464898 
r93 109 118 0.0464898 
r94 109 110 0.0430769 
r95 104 105 0.79 
r96 99 100 1.745 
r97 97 99 0.0451268 
r98 97 98 0.124211 
r99 96 116 0.0321994 
r100 95 104 0.0447517 
r101 95 96 0.647059 
r102 94 98 0.0451268 
r103 93 117 0.0448391 
r104 93 94 5.505 
r105 89 143 0.02 
r106 89 90 2.2575 
r107 88 116 0.010241 
r108 88 90 1.98 
r109 266 62 0.00195122 
r110 62 216 3 
r111 203 38 0.00142683 
r112 262 38 3 
r113 26 266 0.0536585 
r114 26 213 3 
r115 203 9 0.0277856 
r116 259 9 3 
.ends

.subckt PM_PC3T05D%U29_ngate3 51 59 82 88
c0 131 0 0.429797f
c1 123 0 14.3591f
c2 117 0 0.533727f
c3 116 0 1.40245f
c4 113 0 0.0711574f
c5 112 0 8.05129f
c6 111 0 4.70292f
c7 108 0 0.22953f
c8 105 0 0.344858f
c9 100 0 2.68886f
c10 90 0 0.606155f
c11 89 0 0.167006f
c12 88 0 3.04886f
c13 82 0 3.04886f
c14 59 0 0.00729216f
c15 51 0 1.71143f
c16 44 0 3.2228f
r17 120 123 1.98933 
r18 114 116 0.119915 
r19 114 131 1.5 
r20 112 116 0.0867227 
r21 112 113 8.82 
r22 110 113 0.0447076 
r23 110 111 5.76615 
r24 120 108 6 
r25 106 108 6 
r26 105 111 0.0447914 
r27 105 106 0.273333 
r28 117 97 0.00142683 
r29 94 117 0.0277856 
r30 90 117 5.05882 
r31 89 117 5.05882 
r32 84 90 3.88985 
r33 84 88 183.96 
r34 79 89 3.88985 
r35 79 82 183.96 
r36 51 48 1.59714 
r37 100 48 6 
r38 45 103 3.29429 
r39 100 45 0.874286 
r40 45 123 6 
r41 44 59 4.93143 
r42 103 44 6 
r43 26 131 0.00341463 
r44 26 97 3 
r45 8 26 0.0556098 
r46 8 94 3 
.ends

.subckt PM_PC3T05D%net_m69_VDDO_res 7 33
c0 33 0 1.6552f
c1 29 0 0.144334f
c2 17 0 0.184066f
c3 16 0 0.796388f
c4 15 0 1.7165f
c5 14 0 0.0799721f
c6 10 0 0.075778f
c7 9 0 0.112088f
c8 7 0 0.36959f
r9 16 33 2.05452 
r10 16 17 8.75861 
r11 15 29 66.7742 
r12 14 29 60.5806 
r13 11 15 3.35663 
r14 11 17 11.5758 
r15 10 14 3.35347 
r16 9 10 6.625 
r17 6 9 4.5965 
r18 6 7 4.56364 
.ends

.subckt PM_PC3T05D%VDDO 321 766 773 780 787 794 801 808 821 919 936 939 950 955
+ 962 990 1056 1061 1385 1389 1392 1396 1404 1411 1432 1461 1471 1479 1487 1493
+ 1499 1505 1511 1517 1523 1529 1535 1586 1603 1632 1637
c0 1637 0 20.9887f
c1 1629 0 4.28415f
c2 1620 0 6.89048f
c3 1611 0 8.82377f
c4 1606 0 6.12782f
c5 1603 0 51.1958f
c6 1582 0 2.98997f
c7 1548 0 9.6143f
c8 1535 0 1.38187f
c9 1529 0 2.71531f
c10 1523 0 2.1001f
c11 1517 0 1.36358f
c12 1511 0 1.72206f
c13 1505 0 1.95537f
c14 1499 0 0.814691f
c15 1493 0 1.88642f
c16 1487 0 2.46926f
c17 1484 0 3.09146f
c18 1468 0 0.505408f
c19 1464 0 30.3744f
c20 1463 0 1.93836f
c21 1461 0 63.2455f
c22 1459 0 1.61686f
c23 1410 0 51.1638f
c24 1400 0 0.597515f
c25 1399 0 1.41036f
c26 1396 0 3.00492f
c27 1389 0 2.50685f
c28 1377 0 0.153591f
c29 1369 0 0.331843f
c30 1365 0 0.149617f
c31 1359 0 0.234896f
c32 1349 0 0.619196f
c33 1345 0 0.191655f
c34 1341 0 0.616262f
c35 1335 0 3.03314f
c36 1333 0 0.687185f
c37 1331 0 0.461876f
c38 1325 0 2.42667f
c39 1321 0 1.17015f
c40 1320 0 0.0920923f
c41 1319 0 0.0454016f
c42 1318 0 0.666282f
c43 1315 0 0.231458f
c44 1274 0 9.76182f
c45 1265 0 0.884453f
c46 1080 0 0.337031f
c47 1078 0 10.7189f
c48 1056 0 0.458636f
c49 1012 0 4.04634f
c50 1008 0 0.273365f
c51 1006 0 0.27892f
c52 1000 0 0.00605517f
c53 998 0 8.39124f
c54 997 0 3.37167f
c55 992 0 1.0165f
c56 989 0 0.0193183f
c57 987 0 0.0208492f
c58 986 0 5.66331f
c59 985 0 3.34883f
c60 984 0 0.0349764f
c61 982 0 0.20801f
c62 972 0 0.0969917f
c63 969 0 0.0596675f
c64 968 0 3.19809f
c65 967 0 1.13049f
c66 962 0 1.43984f
c67 959 0 0.451293f
c68 955 0 1.37485f
c69 939 0 0.337987f
c70 936 0 0.671143f
c71 930 0 0.0312289f
c72 929 0 0.966787f
c73 919 0 1.42069f
c74 821 0 7.08798f
c75 813 0 7.25718f
c76 801 0 0.00989968f
c77 794 0 0.00989968f
c78 787 0 0.00989968f
c79 780 0 0.00989968f
c80 773 0 0.0234213f
c81 766 0 0.00828265f
c82 733 0 12.0272f
c83 731 0 19.5237f
c84 729 0 19.7073f
c85 727 0 19.7342f
c86 725 0 19.7073f
c87 723 0 19.7068f
c88 721 0 11.8043f
c89 695 0 0.114758f
c90 694 0 6.34215f
c91 691 0 0.103657f
c92 690 0 6.28446f
c93 321 0 0.613896f
c94 17 0 0.486838f
c95 16 0 6.73982f
c96 7 0 0.152029f
c97 6 0 6.75738f
r98 1632 1635 0.00394881 
r99 1629 1630 0.956244 
r100 1622 1623 0.279231 
r101 1620 1622 0.266538 
r102 1613 1614 0.273962 
r103 1611 1613 0.261509 
r104 1600 1601 0.312462 
r105 1599 1600 0.0205664 
r106 1598 1599 0.0205664 
r107 1597 1598 0.0263617 
r108 1596 1597 0.035817 
r109 1595 1596 0.0124619 
r110 1594 1595 0.0360784 
r111 1593 1594 0.0354684 
r112 1592 1593 0.013159 
r113 1591 1592 0.0256209 
r114 1590 1591 0.0183007 
r115 1584 1603 0.00304139 
r116 1601 1584 0.00174292 
r117 1582 1584 0.461538 
r118 1544 1545 1.3071 
r119 1543 1544 10.0994 
r120 1538 1600 0.6 
r121 1535 1538 0.4475 
r122 1532 1599 0.6 
r123 1529 1532 1.6625 
r124 1526 1598 0.6 
r125 1523 1526 1.6625 
r126 1520 1597 0.666667 
r127 1517 1520 0.365 
r128 1514 1596 0.545455 
r129 1511 1514 1.4825 
r130 1508 1595 0.545455 
r131 1505 1508 1.63 
r132 1502 1594 0.75 
r133 1499 1502 0.1575 
r134 1496 1593 0.75 
r135 1493 1496 1.1525 
r136 1490 1592 0.5 
r137 1487 1490 1.455 
r138 1486 1590 0.00174292 
r139 1586 1486 0.00305011 
r140 1484 1486 0.461538 
r141 1479 1629 0.2 
r142 1475 1637 0.0039415 
r143 1635 1475 0.467422 
r144 1473 1475 0.5 
r145 1471 1473 0.181 
r146 1468 1471 0.17 
r147 1468 1601 1.5 
r148 1465 1466 0.5433 
r149 1464 1465 0.2247 
r150 1463 1479 0.0528252 
r151 1463 1466 0.099 
r152 1630 1459 0.698216 
r153 1457 1459 0.2 
r154 1457 1461 0.0136564 
r155 1623 1456 0.279231 
r156 1456 1454 0.279231 
r157 1454 1452 0.279231 
r158 1452 1450 0.266538 
r159 1448 1450 1.5 
r160 1448 1452 1.5 
r161 1448 1454 1.5 
r162 1448 1456 1.5 
r163 1448 1457 0.0314855 
r164 1447 1448 0.0601494 
r165 1614 1446 0.273962 
r166 1446 1444 0.273962 
r167 1444 1442 0.273962 
r168 1442 1440 0.261509 
r169 1438 1440 1.5 
r170 1438 1442 1.5 
r171 1438 1444 1.5 
r172 1438 1446 1.5 
r173 1438 1447 0.0634357 
r174 1608 1437 0.000747664 
r175 1435 1437 0.2 
r176 1435 1438 0.0334274 
r177 1432 1435 0.01361 
r178 1426 1622 1.5 
r179 1426 1620 1.5 
r180 1426 1623 1.5 
r181 1424 1426 0.0694058 
r182 1418 1613 1.5 
r183 1418 1611 1.5 
r184 1418 1424 0.0805639 
r185 1418 1614 1.5 
r186 1414 1606 0.2 
r187 1414 1418 0.0404834 
r188 1411 1414 0.0165962 
r189 1410 1479 0.0245381 
r190 1410 1426 0.0330312 
r191 1407 1635 0.5 
r192 1404 1407 0.181 
r193 1400 1590 1.5 
r194 1400 1404 0.17 
r195 1399 1464 0.5293 
r196 1371 1374 3 
r197 1548 1371 0.0677429 
r198 1369 1371 3 
r199 1548 1361 0.1116 
r200 1579 1361 0.0028 
r201 1359 1361 6 
r202 1338 1544 6 
r203 1333 1335 6 
r204 1333 1338 0.752258 
r205 1377 1331 0.535714 
r206 1322 1335 2.907 
r207 1320 1543 1.86065 