* File: pc3t04u.dist.sp.pex
* Created: Sun Jul  4 12:50:18 2010
* Program "Calibre xRC"
* Version "v2008.4_19.14"
* Nominal Temperature: 27C
* Circuit Temperature: 27C
* 
.subckt PM_PC3T04U%U28_padr 12 60 64 72 138 140 142 188
c0 265 0 16.1898f
c1 260 0 9.31832f
c2 251 0 15.9589f
c3 243 0 6.63134f
c4 239 0 0.147208f
c5 235 0 5.6364f
c6 233 0 0.516512f
c7 231 0 0.0693806f
c8 230 0 0.207306f
c9 229 0 0.410871f
c10 219 0 1.09927f
c11 214 0 2.09691f
c12 208 0 0.487407f
c13 197 0 0.616942f
c14 193 0 2.4856f
c15 192 0 0.269986f
c16 189 0 0.703354f
c17 188 0 0.858705f
c18 165 0 0.0984887f
c19 158 0 0.0817276f
c20 150 0 16.0756f
c21 142 0 1.05383f
c22 140 0 0.574049f
c23 138 0 1.02285f
c24 112 0 0.134724f
c25 108 0 0.430734f
c26 105 0 0.564658f
c27 104 0 0.372633f
c28 102 0 0.104294f
c29 99 0 1.74545f
c30 98 0 0.650152f
c31 95 0 0.397186f
c32 92 0 0.0454778f
c33 91 0 0.0323187f
c34 90 0 0.0867402f
c35 85 0 0.111602f
c36 82 0 0.0980186f
c37 78 0 0.315542f
c38 76 0 0.0685709f
c39 75 0 0.0999152f
c40 72 0 1.28207f
c41 69 0 0.0427046f
c42 68 0 0.378659f
c43 64 0 2.46764f
c44 60 0 1.52885f
c45 19 0 0.153394f
c46 18 0 0.038327f
c47 17 0 0.0462643f
c48 16 0 0.0884342f
c49 12 0 1.07645f
r50 265 253 0.172857 
r51 251 253 6 
r52 247 249 3.96667 
r53 243 265 2 
r54 241 243 10.3129 
r55 237 239 0.10375 
r56 260 235 0.185079 
r57 233 235 1.2 
r58 232 233 0.482857 
r59 230 232 0.0446983 
r60 230 231 0.125714 
r61 229 231 0.0446983 
r62 224 225 6 
r63 221 251 6.66533 
r64 249 221 4.34533 
r65 219 221 6 
r66 219 224 0.8816 
r67 207 239 0.02 
r68 207 208 0.755 
r69 203 237 0.02 
r70 192 225 0.0840267 
r71 190 192 0.0448127 
r72 190 193 2.62845 
r73 189 260 0.18836 
r74 193 188 0.0773806 
r75 149 150 1.07733 
r76 130 142 168.333 
r77 130 165 3.92502 
r78 125 140 51.6667 
r79 124 125 1.66667 
r80 117 138 168.333 
r81 158 117 3.6393 
r82 214 112 6 
r83 109 217 0.8025 
r84 214 109 2.8475 
r85 109 150 6 
r86 108 165 0.77 
r87 217 108 6 
r88 105 212 1.2525 
r89 105 249 6 
r90 104 158 0.7825 
r91 212 104 6 
r92 208 102 6 
r93 99 205 0.8 
r94 203 99 2.045 
r95 99 149 6 
r96 205 98 6 
r97 95 201 0.482667 
r98 95 247 6 
r99 94 149 3.09467 
r100 201 94 6 
r101 92 112 0.05 
r102 88 90 0.12 
r103 88 98 0.8825 
r104 86 102 0.04375 
r105 85 86 0.02 
r106 83 85 0.10375 
r107 82 92 0.0446983 
r108 81 91 0.0338756 
r109 81 82 0.1875 
r110 78 124 1.16667 
r111 77 91 0.0338756 
r112 77 78 0.245 
r113 75 91 0.00880368 
r114 75 76 0.25 
r115 71 76 0.0446983 
r116 71 72 1.2575 
r117 70 72 1.3775 
r118 68 70 0.0447588 
r119 68 69 0.544 
r120 90 64 2.375 
r121 59 83 0.02 
r122 59 60 1.40875 
r123 58 69 0.0447588 
r124 58 60 1.3775 
r125 197 21 0.30381 
r126 19 21 3 
r127 18 19 0.109474 
r128 241 17 0.0446983 
r129 18 16 0.0456991 
r130 16 17 0.147143 
r131 13 229 0.407619 
r132 13 197 0.0446983 
r133 189 12 0.0147368 
.ends

.subckt PM_PC3T04U%VDDO 824 892 903 914 925 936 947 958 973 1165 1171 1175 1229
+ 1260 1265 1272 1299 1358 1627 1631 1634 1638 1646 1653 1660 1669 1679 1691 1697
+ 1703 1709 1715 1721 1727 1733 1743 1782 1799 1802 1807
c0 1807 0 20.8083f
c1 1799 0 51.398f
c2 1778 0 2.98997f
c3 1747 0 9.63308f
c4 1740 0 0.492054f
c5 1733 0 1.38187f
c6 1727 0 2.71574f
c7 1721 0 1.36358f
c8 1715 0 1.72178f
c9 1709 0 1.95846f
c10 1703 0 0.814504f
c11 1697 0 1.85104f
c12 1691 0 2.41799f
c13 1688 0 3.08944f
c14 1676 0 0.505396f
c15 1672 0 30.2969f
c16 1671 0 1.942f
c17 1669 0 63.2768f
c18 1652 0 51.1375f
c19 1642 0 0.598136f
c20 1641 0 1.39755f
c21 1638 0 3.00492f
c22 1631 0 2.5051f
c23 1620 0 0.331825f
c24 1616 0 0.149621f
c25 1610 0 0.23522f
c26 1606 0 0.619196f
c27 1602 0 0.338267f
c28 1598 0 0.191708f
c29 1594 0 0.62042f
c30 1589 0 2.4172f
c31 1585 0 2.45298f
c32 1553 0 9.76182f
c33 1376 0 8.21995f
c34 1375 0 3.62449f
c35 1352 0 0.458636f
c36 1323 0 4.0422f
c37 1319 0 2.38762f
c38 1313 0 0.285411f
c39 1309 0 0.00605517f
c40 1307 0 8.05574f
c41 1306 0 3.4444f
c42 1301 0 0.912107f
c43 1298 0 0.0193183f
c44 1296 0 0.0208492f
c45 1295 0 5.74206f
c46 1292 0 0.192794f
c47 1282 0 0.0969917f
c48 1279 0 0.0596675f
c49 1278 0 3.19619f
c50 1277 0 1.09777f
c51 1272 0 1.44759f
c52 1269 0 0.451293f
c53 1265 0 1.38389f
c54 1251 0 0.337442f
c55 1248 0 0.66469f
c56 1246 0 0.0459809f
c57 1245 0 0.542741f
c58 1244 0 0.0297441f
c59 1243 0 0.465594f
c60 1242 0 0.231512f
c61 1229 0 1.417f
c62 1120 0 3.54157f
c63 1085 0 5.48591f
c64 1070 0 1.29937f
c65 1066 0 0.657304f
c66 1062 0 8.82377f
c67 1060 0 6.89048f
c68 1058 0 0.588747f
c69 1052 0 0.170971f
c70 1049 0 0.0533066f
c71 1047 0 0.109209f
c72 973 0 7.10179f
c73 965 0 7.25869f
c74 962 0 11.8046f
c75 951 0 19.7068f
c76 947 0 0.00989968f
c77 940 0 19.7073f
c78 936 0 0.00989968f
c79 929 0 19.7342f
c80 925 0 0.00989968f
c81 918 0 19.5401f
c82 914 0 0.0231487f
c83 907 0 19.72f
c84 903 0 0.0106158f
c85 896 0 12.0292f
c86 892 0 0.00828265f
c87 849 0 0.210878f
c88 812 0 0.0533066f
c89 801 0 0.114758f
c90 800 0 6.34573f
c91 797 0 0.103657f
c92 796 0 6.27475f
c93 17 0 0.486838f
c94 16 0 6.74058f
c95 7 0 0.152029f
c96 6 0 6.76785f
r97 1802 1805 0.00394881 
r98 1796 1797 0.249237 
r99 1795 1796 0.0768627 
r100 1794 1795 0.0205664 
r101 1793 1794 0.0338998 
r102 1792 1793 0.0357734 
r103 1791 1792 0.0124619 
r104 1790 1791 0.035512 
r105 1789 1790 0.0354684 
r106 1788 1789 0.013159 
r107 1787 1788 0.0256209 
r108 1786 1787 0.0183007 
r109 1780 1799 0.00304139 
r110 1797 1780 0.00174292 
r111 1778 1780 0.461538 
r112 1740 1743 0.0002 
r113 1740 1796 0.666667 
r114 1736 1795 0.6 
r115 1733 1736 0.4475 
r116 1730 1794 0.6 
r117 1727 1730 1.6625 
r118 1724 1793 0.666667 
r119 1721 1724 0.365 
r120 1718 1792 0.545455 
r121 1715 1718 1.4825 
r122 1712 1791 0.545455 
r123 1709 1712 1.63 
r124 1706 1790 0.75 
r125 1703 1706 0.1575 
r126 1700 1789 0.75 
r127 1697 1700 1.1525 
r128 1694 1788 0.5 
r129 1691 1694 1.455 
r130 1690 1786 0.00174292 
r131 1782 1690 0.00305011 
r132 1688 1690 0.461538 
r133 1683 1807 0.0039415 
r134 1805 1683 0.467422 
r135 1681 1683 0.5 
r136 1679 1681 0.181 
r137 1676 1679 0.17 
r138 1676 1797 1.5 
r139 1673 1674 0.5433 
r140 1672 1673 0.2247 
r141 1671 1674 0.099 
r142 1667 1669 0.0136564 
r143 1666 1667 0.0314855 
r144 1665 1666 0.0601494 
r145 1664 1665 0.0634357 
r146 1663 1664 0.0334274 
r147 1660 1663 0.01361 
r148 1649 1805 0.5 
r149 1646 1649 0.181 
r150 1642 1786 1.5 
r151 1642 1646 0.17 
r152 1641 1672 0.5293 
r153 1622 1625 3 
r154 1747 1622 0.0677429 
r155 1620 1622 3 
r156 1747 1612 0.1116 
r157 1775 1612 0.0028 
r158 1610 1612 6 
r159 1553 1775 0.2648 
r160 1552 1775 0.2664 
r161 1551 1775 0.2664 
r162 1378 1606 1.2 
r163 1376 1378 1.03355 
r164 1375 1376 9.76387 
r165 1371 1602 1 
r166 1368 1616 3 
r167 1365 1368 0.2885 
r168 1365 1598 2 
r169 1610 1336 0.000149533 
r170 1641 1335 0.0555566 
r171 1335 1336 6 
r172 1334 1625 0.0444444 
r173 1620 1334 7.40741e-05 
r174 1641 1333 0.0279474 
r175 1333 1334 1.5 
r176 1598 1332 0.000233918 
r177 1673 1332 2 
r178 1606 1330 0.000114123 
r179 1672 1330 1.2 
r180 1602 1328 0.000100503 
r181 1674 1328 1 
r182 1616 1326 0.000299625 
r183 1673 1326 3 
r184 1594 1323 6 
r185 1594 1320 0.804286 
r186 1320 1376 6 
r187 1589 1319 3 
r188 1317 1358 1.278 
r189 1356 1317 1.371 
r190 1592 1317 6 
r191 1314 1592 2.64235 
r192 1589 1314 0.494118 
r193 1314 1375 6 
r194 1585 1313 6 
r195 1585 1310 3.395 
r196 1310 1356 6 
r197 1309 1352 0.0484211 
r198 1787 1309 2 
r199 1307 1371 0.219259 
r200 1306 1368 0.0845 
r201 1305 1323 5.04429 
r202 1299 1301 0.605623 
r203 1297 1365 1.917 
r204 1297 1298 0.0149881 
r205 1295 1358 0.4775 
r206 1295 1296 0.013668 
r207 1294 1319 2.73294 
r208 1290 1313 0.175 
r209 1289 1292 0.1525 
r210 1289 1290 0.02 
r211 1282 1356 0.563 
r212 1281 1778 0.526 
r213 1281 1307 0.0447005 
r214 1280 1778 2.122 
r215 1280 1306 0.0446983 
r216 1278 1305 0.0446983 
r217 1278 1279 3.31857 
r218 1299 1277 0.584127 
r219 1276 1279 0.0446983 
r220 1276 1277 1.02286 
r221 1271 1298 0.0313149 
r222 1271 1272 1.51 
r223 1270 1296 0.013668 
r224 1269 1298 0.0149881 
r225 1269 1270 0.2995 
r226 1264 1296 0.0337919 
r227 1264 1265 1.64138 
r228 1301 1260 1.36714 
r229 1248 1251 0.81913 
r230 1247 1251 0.309565 
r231 1245 1294 0.0468981 
r232 1245 1246 1.01391 
r233 1243 1247 0.0446983 
r234 1243 1244 1.03304 
r235 1242 1246 0.0446983 
r236 1241 1244 0.0446983 
r237 1241 1242 0.509565 
r238 1228 1292 0.02 
r239 1228 1229 1.3925 
r240 1222 1688 2.122 
r241 1222 1282 0.0446983 
r242 1251 1175 5.56667 
r243 1248 1171 5.56667 
r244 1165 1352 5.54444 
r245 1122 1123 0.490516 
r246 1121 1122 0.232864 
r247 1120 1121 0.279437 
r248 1111 1112 0.279231 
r249 1110 1111 0.2665 
r250 1101 1102 0.273962 
r251 1100 1101 0.261472 
r252 1087 1088 0.278131 
r253 1084 1638 0.0526456 
r254 1634 1084 0.0552365 
r255 1665 1084 0.00227273 
r256 1663 1082 3 
r257 1663 1080 0.666667 
r258 1664 1078 1.5 
r259 1666 1076 1.5 
r260 1667 1074 3 
r261 1667 1072 3 
r262 1667 1070 2 
r263 1068 1631 0.0620926 
r264 1627 1068 0.0688218 
r265 1658 1068 0.0025 
r266 1062 1100 3.77358e-05 
r267 1060 1110 3.84615e-05 
r268 1052 1120 0.117559 
r269 1051 1052 0.119812 
r270 1051 1058 0.181784 
r271 1050 1072 0.0101408 
r272 1049 1070 0.122066 
r273 1048 1085 0.0616822 
r274 1047 1048 0.08 
r275 1047 1066 0.274084 
r276 976 978 0.0829907 
r277 976 1123 0.1 
r278 978 973 0.159252 
r279 973 985 0.159252 
r280 973 976 0.0291589 
r281 965 973 0.159252 
r282 962 1076 1.5 
r283 958 962 0.793846 
r284 955 958 0.842637 
r285 955 1078 1.5 
r286 947 951 0.55145 
r287 944 947 0.585344 
r288 936 940 0.55145 
r289 933 936 0.585344 
r290 925 929 0.55145 
r291 922 925 0.585344 
r292 918 1112 1.5 
r293 914 918 0.55145 
r294 911 914 0.585344 
r295 911 1102 1.5 
r296 907 1111 1.5 
r297 903 907 0.55145 
r298 900 903 0.585344 
r299 900 1101 1.5 
r300 896 1110 1.5 
r301 892 896 0.793846 
r302 889 892 0.842637 
r303 889 1100 1.5 
r304 884 1092 0.2 
r305 973 884 0.0391734 
r306 867 1087 0.185047 
r307 1085 867 0.0930841 
r308 865 867 0.2 
r309 865 973 0.0397569 
r310 855 1080 0.231776 
r311 1092 855 0.232523 
r312 1663 855 1 
r313 944 853 1.5 
r314 853 1078 0.261509 
r315 1664 853 1.5 
r316 951 851 1.5 
r317 851 1076 0.266538 
r318 1666 851 1.5 
r319 1667 849 1 
r320 847 1092 0.231028 
r321 1082 847 0.278131 
r322 1663 847 0.6 
r323 933 845 1.5 
r324 845 853 0.273962 
r325 1664 845 1.5 
r326 940 843 1.5 
r327 843 851 0.279231 
r328 1666 843 1.5 
r329 841 1072 0.279437 
r330 1074 841 0.279437 
r331 1667 841 0.6 
r332 839 1082 0.139065 
r333 1088 839 0.683365 
r334 1663 839 2 
r335 922 837 1.5 
r336 837 845 0.273962 
r337 1102 837 0.273962 
r338 1664 837 1.5 
r339 929 835 1.5 
r340 835 843 0.279231 
r341 1112 835 0.279231 
r342 1666 835 1.5 
r343 833 1074 0.232864 
r344 1123 833 0.139343 
r345 1667 833 0.857143 
r346 830 1087 2 
r347 830 1085 0.666667 
r348 830 1066 0.666667 
r349 1653 830 0.0165962 
r350 830 1088 0.666667 
r351 828 1101 1.5 
r352 828 1062 1.5 
r353 828 1658 0.0805639 
r354 830 828 0.0404834 
r355 828 1102 1.5 
r356 826 1111 1.5 
r357 826 1060 1.5 
r358 1652 826 0.0330312 
r359 1658 826 0.0694058 
r360 826 1112 1.5 
r361 824 1121 3 
r362 824 1120 0.666667 
r363 824 1058 0.6 
r364 824 1671 0.0532592 
r365 824 1652 0.0241042 
r366 824 1122 0.666667 
r367 814 849 0.0239252 
r368 814 1049 0.04 
r369 812 849 0.135327 
r370 812 1050 0.04 
r371 807 985 0.73271 
r372 806 965 0.737944 
r373 805 973 0.73271 
r374 804 973 0.737944 
r375 801 805 0.0451326 
r376 801 973 2.504 
r377 800 807 0.0451326 
r378 800 973 2.44889 
r379 797 804 0.045921 
r380 797 973 2.687 
r381 796 806 0.045921 
r382 796 973 2.885 
r383 17 1775 1.51848 
r384 16 1553 0.0447329 
r385 16 1775 1.51162 
r386 15 1622 0.0737243 
r387 15 17 0.0447329 
r388 1552 7 0.0447329 
r389 7 1775 1.51848 
r390 6 1551 0.0447329 
r391 6 1775 1.51162 
.ends

.subckt PM_PC3T04U%net_m69_VSSO_res 9 38
c0 39 0 0.738365f
c1 33 0 0.902257f
c2 30 0 0.925715f
c3 24 0 0.0630935f
c4 23 0 0.314743f
c5 22 0 0.0527767f
c6 21 0 1.38382f
c7 20 0 0.881706f
r8 33 39 2.46349 
r9 33 38 1.8 
r10 29 30 0.987826 
r11 25 39 0.596923 
r12 23 25 0.0472932 
r13 23 24 0.351765 
r14 21 29 0.0468981 
r15 21 22 2.02471 
r16 20 24 0.0446983 
r17 19 22 0.0446983 
r18 19 20 1.4 
r19 30 9 5.56667 
.ends

.subckt PM_PC3T04U%net_m20_VSSO_res 41 69 76 81 88 123
c0 123 0 0.73297f
c1 120 0 0.407564f
c2 118 0 0.111937f
c3 102 0 0.0628754f
c4 92 0 0.2354f
c5 88 0 0.519409f
c6 86 0 0.241117f
c7 85 0 0.158208f
c8 81 0 0.519409f
c9 76 0 0.519409f
c10 74 0 0.170749f
c11 73 0 0.165025f
c12 69 0 0.719683f
c13 48 0 0.612784f
c14 46 0 0.0475577f
c15 45 0 0.374282f
r16 118 120 0.0223492 
r17 115 118 0.129412 
r18 103 123 85 
r19 96 120 6.90667 
r20 95 97 5.17241 
r21 95 96 1.55172 
r22 94 95 11.1034 
r23 93 102 2.23066 
r24 92 103 3.37824 
r25 92 93 10.8571 
r26 87 102 0.93595 
r27 87 88 85 
r28 86 97 2.89655 
r29 85 102 2.23066 
r30 85 86 10.8571 
r31 80 97 1.55172 
r32 80 81 85 
r33 75 94 1.55172 
r34 75 76 85 
r35 73 94 2.89655 
r36 73 74 10.8571 
r37 68 74 3.37824 
r38 68 69 85 
r39 47 48 0.18 
r40 115 46 0.0446983 
r41 45 47 0.0446983 
r42 45 46 0.521176 
r43 48 41 5.56667 
.ends

.subckt PM_PC3T04U%VSS 813 858 880 904 909 921 923 928
c0 928 0 92.1591f
c1 921 0 55.2728f
c2 907 0 2.37329f
c3 904 0 0.00368951f
c4 901 0 1.24098f
c5 887 0 16.7345f
c6 876 0 1.88726f
c7 869 0 15.3615f
c8 855 0 1.45971f
c9 827 0 24.8267f
c10 825 0 0.0842555f
c11 824 0 10.3373f
c12 823 0 0.0657505f
c13 822 0 7.41172f
c14 820 0 0.184939f
c15 817 0 0.0372194f
c16 813 0 4.20605f
c17 810 0 0.144425f
c18 808 0 0.578389f
c19 801 0 8.75272f
c20 799 0 0.194438f
c21 798 0 0.100669f
c22 797 0 1.98794f
c23 692 0 2.21441f
c24 688 0 2.46807f
c25 684 0 1.3421f
c26 682 0 0.239307f
c27 680 0 0.276497f
c28 677 0 26.5984f
c29 672 0 0.814991f
c30 671 0 6.34069f
c31 665 0 2.0393f
c32 659 0 0.137389f
c33 658 0 2.48686f
c34 657 0 0.154374f
c35 656 0 2.25381f
c36 573 0 0.162892f
c37 571 0 0.72248f
c38 569 0 0.203897f
c39 544 0 2.94312f
c40 530 0 3.05957f
c41 528 0 0.031054f
c42 525 0 0.571035f
c43 524 0 6.91145f
c44 523 0 0.161087f
c45 508 0 3.75187f
c46 505 0 2.96391f
r47 923 926 0.000703354 
r48 919 921 0.00318245 
r49 918 919 0.00119641 
r50 917 918 0.0758524 
r51 916 917 0.0344168 
r52 915 916 0.167059 
r53 914 915 0.128574 
r54 913 914 0.0141176 
r55 912 913 0.089651 
r56 909 912 0.00438684 
r57 907 919 0.461538 
r58 901 904 1.28857 
r59 901 917 1.5 
r60 895 915 0.0535714 
r61 883 918 0.428571 
r62 880 883 0.189 
r63 878 928 0.000702051 
r64 926 878 0.0832563 
r65 876 878 0.131579 
r66 876 880 0.013 
r67 873 874 0.56934 
r68 872 873 1.12447 
r69 869 872 0.628223 
r70 869 916 0.3 
r71 861 912 0.428571 
r72 858 861 0.189 
r73 855 858 0.013 
r74 855 926 0.131579 
r75 826 849 0.02 
r76 826 827 0.9662 
r77 824 825 0.0338756 
r78 822 895 2.8715 
r79 822 823 0.0338756 
r80 816 825 0.0338756 
r81 815 823 0.0338756 
r82 813 899 2.59036 
r83 897 813 1.07807 
r84 887 813 1.4815 
r85 812 825 0.00880368 
r86 812 813 0.958 
r87 811 823 0.00880368 
r88 811 813 0.986 
r89 820 810 0.0632911 
r90 810 808 0.0574488 
r91 807 817 0.0448201 
r92 804 907 1.518 
r93 803 907 0.426 
r94 801 899 1.08482 
r95 799 897 1.06072 
r96 798 887 1.622 
r97 797 798 0.0448201 
r98 797 807 2.13041 
r99 824 694 0.733 
r100 813 694 1.93 
r101 692 837 3 
r102 689 895 1.612 
r103 817 689 1.283 
r104 689 914 1.5 
r105 897 688 1 
r106 837 684 0.24 
r107 873 684 1.5 
r108 694 682 3 
r109 872 682 3 
r110 680 899 3 
r111 874 680 3 
r112 677 866 1.1314 
r113 677 913 0.125 
r114 676 688 0.0075 
r115 849 676 0.056 
r116 866 676 0.24 
r117 674 820 0.0155975 
r118 827 674 1 
r119 672 816 0.5005 
r120 804 672 0.0446983 
r121 671 815 0.5005 
r122 803 671 0.0446983 
r123 670 692 0.830244 
r124 669 692 0.573659 
r125 664 665 1.37048 
r126 659 670 0.0448242 
r127 659 660 0.678222 
r128 658 665 0.0447675 
r129 658 660 0.650667 
r130 657 669 0.0446983 
r131 656 664 0.0447067 
r132 656 657 1.45854 
r133 572 573 0.147619 
r134 568 569 0.14988 
r135 801 568 0.0380723 
r136 565 567 0.143333 
r137 799 564 0.0385542 
r138 562 564 0.14506 
r139 813 561 0.159 
r140 544 813 0.159 
r141 543 573 0.02 
r142 543 561 1.247 
r143 542 569 0.02 
r144 542 544 1.243 
r145 813 541 0.192 
r146 539 813 0.192 
r147 538 539 0.342 
r148 813 538 0.192 
r149 536 813 0.192 
r150 535 536 0.342 
r151 813 535 0.192 
r152 533 813 0.192 
r153 532 533 0.342 
r154 813 532 0.192 
r155 530 813 0.192 
r156 529 572 0.02 
r157 529 541 1.214 
r158 528 571 0.04 
r159 528 530 0.243 
r160 526 568 0.02 
r161 526 571 0.938734 
r162 674 525 0.102486 
r163 524 572 0.0380952 
r164 524 525 4.80524 
r165 523 808 0.555238 
r166 523 567 0.0380952 
r167 813 519 0.159 
r168 517 813 0.159 
r169 516 517 0.408 
r170 813 516 0.159 
r171 514 813 0.159 
r172 513 514 0.408 
r173 813 513 0.159 
r174 511 813 0.159 
r175 510 511 0.408 
r176 813 510 0.159 
r177 508 813 0.159 
r178 507 567 0.02 
r179 507 519 1.247 
r180 506 564 0.02 
r181 506 508 1.243 
r182 505 565 0.02 
r183 504 562 0.02 
r184 504 505 4.69271 
.ends

.subckt PM_PC3T04U%U28_U42_r1 93 98 140 145 152
c0 234 0 0.100654f
c1 232 0 0.446388f
c2 227 0 0.44555f
c3 222 0 0.346018f
c4 218 0 2.82383f
c5 213 0 0.141582f
c6 210 0 0.240204f
c7 209 0 0.428641f
c8 207 0 0.232617f
c9 205 0 0.0831055f
c10 204 0 0.333776f
c11 201 0 6.43541f
c12 198 0 0.725256f
c13 194 0 1.50583f
c14 193 0 0.725256f
c15 186 0 3.30165f
c16 185 0 0.0777466f
c17 184 0 10.3263f
c18 182 0 0.472173f
c19 180 0 0.408756f
c20 177 0 0.140416f
c21 172 0 0.0742904f
c22 169 0 0.0630044f
c23 161 0 0.171215f
c24 153 0 0.535761f
c25 152 0 0.278026f
c26 148 0 0.609289f
c27 147 0 0.168829f
c28 145 0 3.04886f
c29 140 0 3.04886f
c30 108 0 0.972447f
c31 98 0 3.04886f
c32 97 0 0.168893f
c33 93 0 3.04886f
c34 92 0 0.170554f
r35 211 213 0.1472 
r36 209 213 0.02 
r37 208 209 0.747936 
r38 206 211 0.02 
r39 206 207 0.405333 
r40 204 207 0.0446983 
r41 204 205 0.314667 
r42 201 234 6 
r43 199 205 0.0446983 
r44 199 201 7.00667 
r45 197 232 0.000487805 
r46 229 197 0.055122 
r47 196 198 0.0728393 
r48 196 197 1.5 
r49 195 210 0.101494 
r50 194 198 0.0795789 
r51 194 195 1.466 
r52 193 210 0.0219246 
r53 192 227 0.00292683 
r54 224 192 0.0526829 
r55 191 193 0.0728393 
r56 191 192 1.5 
r57 188 222 3 
r58 186 210 0.101494 
r59 186 188 3.41 
r60 184 208 0.0482946 
r61 184 185 8.83231 
r62 180 182 6 
r63 179 185 0.0501405 
r64 179 180 0.594286 
r65 175 234 0.0490323 
r66 174 177 0.157419 
r67 174 175 0.02 
r68 173 182 0.577143 
r69 172 222 0.261 
r70 172 173 0.0465329 
r71 169 218 6 
r72 167 177 0.02 
r73 167 169 0.0490323 
r74 166 218 3.99613 
r75 165 166 0.026898 
r76 161 165 0.10143 
r77 161 152 0.106667 
r78 148 153 5.05882 
r79 147 153 5.05882 
r80 142 148 3.88985 
r81 142 145 183.96 
r82 137 147 3.88985 
r83 137 140 183.96 
r84 103 108 5.05882 
r85 102 108 5.05882 
r86 97 103 3.88985 
r87 97 98 183.96 
r88 92 102 3.88985 
r89 92 93 183.96 
r90 153 63 0.00142683 
r91 227 63 3 
r92 108 52 0.00133393 
r93 229 52 3 
r94 34 108 0.0278113 
r95 232 34 3 
r96 153 9 0.0277856 
r97 224 9 3 
.ends

.subckt PM_PC3T04U%VSSO 170 333 496 539 545 549 610 834 1025 1029 1036 1065
+ 1072 1084 1095 1097 1102 1105 1109 1113 1117 1121 1128 1134 1138 1142 1146 1153
+ 1159 1163 1167 1179 1222 1228 1232 1238
c0 1238 0 31.9179f
c1 1225 0 1.98471f
c2 1222 0 10.5553f
c3 1216 0 7.95483f
c4 1214 0 6.9835f
c5 1208 0 6.97074f
c6 1203 0 6.97241f
c7 1197 0 6.97348f
c8 1192 0 6.97543f
c9 1183 0 0.0963582f
c10 1179 0 0.00189383f
c11 1174 0 8.95235f
c12 1167 0 0.342408f
c13 1163 0 1.36597f
c14 1159 0 1.40025f
c15 1146 0 1.35721f
c16 1142 0 1.35624f
c17 1138 0 1.34294f
c18 1134 0 1.10092f
c19 1121 0 1.80865f
c20 1117 0 0.838722f
c21 1113 0 1.38238f
c22 1109 0 1.3086f
c23 1105 0 1.55632f
c24 1102 0 1.69055f
c25 1100 0 2.28529f
c26 1095 0 8.25608e-19
c27 1093 0 8.96457f
c28 1082 0 7.90632f
c29 1078 0 1.27875f
c30 1068 0 1.65699f
c31 1065 0 58.4722f
c32 1032 0 1.3481f
c33 1029 0 10.6731f
c34 1022 0 0.265698f
c35 1014 0 0.0949613f
c36 1012 0 0.139741f
c37 1010 0 0.0452937f
c38 1009 0 0.325836f
c39 1008 0 2.41641f
c40 1005 0 0.112203f
c41 1004 0 0.0401513f
c42 1003 0 1.53621f
c43 1001 0 0.0510217f
c44 1000 0 0.330224f
c45 961 0 35.3288f
c46 960 0 0.675001f
c47 951 0 5.37165f
c48 947 0 0.708327f
c49 943 0 3.2621f
c50 941 0 0.383003f
c51 940 0 0.713156f
c52 939 0 0.305458f
c53 938 0 3.26982f
c54 937 0 0.383249f
c55 935 0 0.498093f
c56 933 0 0.0157313f
c57 932 0 0.576258f
c58 928 0 0.0465497f
c59 927 0 0.185024f
c60 926 0 0.322687f
c61 896 0 0.122915f
c62 895 0 8.99123f
c63 865 0 0.284424f
c64 861 0 7.03694f
c65 857 0 0.146306f
c66 681 0 0.119591f
c67 677 0 0.593769f
c68 660 0 0.881365f
c69 658 0 0.101664f
c70 656 0 0.0361692f
c71 654 0 1.44175f
c72 653 0 0.0306886f
c73 652 0 0.346472f
c74 639 0 0.853061f
c75 635 0 0.539718f
c76 631 0 0.0481945f
c77 630 0 0.43737f
c78 610 0 0.114597f
c79 603 0 0.121434f
c80 509 0 6.68831f
c81 411 0 14.0344f
c82 361 0 14.0436f
c83 248 0 14.0378f
c84 198 0 14.0362f
c85 35 0 14.0395f
c86 10 0 0.146306f
r87 1236 1238 0.00282778 
r88 1235 1236 0.355444 
r89 1232 1235 0.00283333 
r90 1227 1229 0.0106667 
r91 1227 1228 0.02 
r92 1225 1227 0.0143333 
r93 1185 1186 0.0140639 
r94 1178 1179 0.0126606 
r95 1216 1176 0.0113761 
r96 1174 1176 0.0638298 
r97 1171 1220 2 
r98 1167 1171 0.000380952 
r99 1095 1178 0.013211 
r100 1174 1095 0.000917431 
r101 1093 1095 0.000913242 
r102 1093 1185 0.0638298 
r103 1083 1084 0.02 
r104 1082 1185 0.0113242 
r105 1080 1082 0.0327869 
r106 1080 1083 0.0166784 
r107 1078 1080 0.029258 
r108 1075 1236 0.357143 
r109 1072 1075 0.21 
r110 1070 1222 0.00544385 
r111 1220 1070 0.0345455 
r112 1068 1070 1 
r113 1068 1072 0.445 
r114 1063 1065 0.00612761 
r115 1063 1216 0.0327869 
r116 1210 1061 0.00301483 
r117 1061 1214 0.00301741 
r118 1059 1061 0.0266667 
r119 1059 1063 0.0287785 
r120 1153 1058 0.130435 
r121 1058 1208 0.00301741 
r122 1205 1058 0.00301741 
r123 1056 1058 0.0266667 
r124 1056 1059 0.0242129 
r125 1199 1055 0.00301483 
r126 1055 1203 0.00301741 
r127 1053 1055 0.0266667 
r128 1053 1056 0.0242129 
r129 1052 1053 0.000615582 
r130 1128 1051 0.130435 
r131 1051 1197 0.00301741 
r132 1194 1051 0.00301741 
r133 1049 1051 0.0266667 
r134 1049 1052 0.0235973 
r135 1188 1048 0.00301483 
r136 1048 1192 0.00301741 
r137 1046 1048 0.0266667 
r138 1046 1049 0.0242129 
r139 1045 1078 0.02 
r140 1045 1046 0.0277012 
r141 1083 1042 0.429445 
r142 1039 1235 0.357143 
r143 1036 1039 0.21 
r144 1034 1231 0.144409 
r145 1229 1034 0.034 
r146 1032 1034 1 
r147 1032 1036 0.445 
r148 1021 1220 0.12615 
r149 1021 1022 0.00180503 
r150 1014 1183 0.0410689 
r151 1012 1014 3 
r152 1011 1012 0.148421 
r153 1009 1011 0.044878 
r154 1009 1010 0.407059 
r155 1008 1010 0.0446983 
r156 1007 1022 0.0865289 
r157 1007 1008 3.69176 
r158 1004 1005 0.1275 
r159 1003 1004 0.0448391 
r160 1002 1003 2.75862 
r161 1000 1002 0.044715 
r162 1000 1001 0.466667 
r163 1163 999 0.285 
r164 997 999 0.6 
r165 1159 996 0.32 
r166 994 996 0.6 
r167 994 997 0.0396791 
r168 1146 993 0.36 
r169 991 993 0.6 
r170 991 994 0.043262 
r171 1142 990 0.37 
r172 988 990 0.6 
r173 988 991 0.0347594 
r174 987 988 0.0198396 
r175 1138 986 0.3225 
r176 984 986 0.6 
r177 984 987 0.0750802 
r178 1134 983 0.325 
r179 981 983 0.6 
r180 981 984 0.0253476 
r181 1121 980 0.3425 
r182 978 980 0.6 
r183 978 981 0.028877 
r184 1117 977 0.04 
r185 975 977 0.75 
r186 975 978 0.0373797 
r187 1113 974 0.365 
r188 972 974 0.6 
r189 972 975 0.0226738 
r190 1109 971 0.194286 
r191 969 971 0.6 
r192 969 972 0.0226203 
r193 1105 968 0.3175 
r194 966 968 0.6 
r195 966 969 0.0203209 
r196 1102 965 0.96 
r197 963 965 0.666667 
r198 963 966 0.0213904 
r199 962 1225 0.02 
r200 962 963 0.0720856 
r201 961 1022 0.00180503 
r202 961 997 0.0364171 
r203 960 1001 0.0450432 
r204 1231 960 1.29371 
r205 955 1100 6 
r206 952 955 0.784211 
r207 951 1020 0.00736842 
r208 951 955 6.43579 
r209 949 1179 0.230275 
r210 947 1174 0.210275 
r211 944 1100 3.40429 
r212 942 1097 0.229041 
r213 942 943 0.0863581 
r214 940 1093 0.209132 
r215 940 941 0.0863581 
r216 949 938 0.0861375 
r217 938 939 0.132033 
r218 947 937 0.0861375 
r219 933 935 0.201086 
r220 933 932 0.0421961 
r221 1183 932 1.01412 
r222 927 944 0.0446983 
r223 927 928 0.311429 
r224 926 928 0.0449572 
r225 896 1095 0.128 
r226 895 939 0.0473573 
r227 895 1095 0.126 
r228 865 896 0.0473573 
r229 943 865 0.132033 
r230 861 1095 0.126 
r231 860 1102 1.1475 
r232 858 1095 0.128 
r233 857 858 0.0473573 
r234 857 941 0.250407 
r235 935 834 5.56667 
r236 681 662 0.00693642 
r237 1020 662 6 
r238 987 660 0.75 
r239 1005 658 3 
r240 656 677 0.0494737 
r241 952 656 2 
r242 653 660 0.437895 
r243 653 654 0.0407126 
r244 860 652 0.0338756 
r245 638 681 0.0225434 
r246 638 639 1.14783 
r247 634 635 0.221176 
r248 630 634 0.0446983 
r249 630 631 0.608235 
r250 628 631 0.0446983 
r251 628 654 2.01647 
r252 609 652 0.00880368 
r253 609 610 0.1375 
r254 603 926 0.565 
r255 603 658 0.0265396 
r256 639 549 5.56667 
r257 635 545 5.56667 
r258 539 677 5.54444 
r259 512 1029 0.0419737 
r260 1025 512 0.0413851 
r261 1052 512 0.00128205 
r262 1042 509 2.21804 
r263 509 1229 0.6 
r264 1061 496 0.130435 
r265 1153 411 0.00313778 
r266 1208 411 0.0652174 
r267 496 401 0.0031351 
r268 1210 401 0.0652174 
r269 361 496 0.00314046 
r270 1214 361 0.0652174 
r271 1176 350 0.0141284 
r272 350 1178 0.0652174 
r273 1055 333 0.130435 
r274 1128 248 0.00313778 
r275 1197 248 0.0652174 
r276 333 238 0.0031351 
r277 1199 238 0.0652174 
r278 198 333 0.00314046 
r279 1203 198 0.0652174 
r280 188 1153 0.00313778 
r281 1205 188 0.0652174 
r282 1048 170 0.130435 
r283 85 1097 0.0126027 
r284 1095 85 0.0131507 
r285 1186 85 0.0652174 
r286 170 75 0.0031351 
r287 1188 75 0.0652174 
r288 35 170 0.00314046 
r289 1192 35 0.0652174 
r290 25 1128 0.00313778 
r291 1194 25 0.0652174 
r292 10 937 0.250407 
r293 10 861 0.0473573 
.ends

.subckt PM_PC3T04U%U28_U72_pgate 22 41 72 91 122 141 209 211 238 249 285 291
+ 296
c0 423 0 0.414046f
c1 420 0 0.306758f
c2 418 0 0.307529f
c3 417 0 0.307529f
c4 415 0 0.307529f
c5 414 0 0.28749f
c6 411 0 4.75712f
c7 409 0 0.219869f
c8 407 0 0.150262f
c9 405 0 16.0307f
c10 383 0 0.101609f
c11 379 0 5.928f
c12 377 0 2.03718f
c13 373 0 3.86527f
c14 370 0 0.0347659f
c15 365 0 0.831484f
c16 355 0 3.00169f
c17 353 0 0.0612176f
c18 352 0 0.0386035f
c19 344 0 0.730208f
c20 331 0 4.59927f
c21 328 0 0.146501f
c22 327 0 0.0572348f
c23 322 0 0.0938002f
c24 318 0 0.0256146f
c25 317 0 0.0466741f
c26 315 0 0.0752835f
c27 312 0 2.35805f
c28 310 0 0.0584785f
c29 309 0 0.357384f
c30 303 0 0.0477113f
c31 300 0 0.329774f
c32 296 0 1.50772f
c33 291 0 1.06413f
c34 289 0 0.0402841f
c35 288 0 0.368686f
c36 287 0 0.161822f
c37 285 0 1.51477f
c38 249 0 2.52503f
c39 243 0 1.55677f
c40 238 0 2.26197f
c41 236 0 0.0535543f
c42 235 0 0.401006f
c43 207 0 5.10206f
c44 198 0 4.80814f
c45 197 0 0.371977f
c46 191 0 0.405378f
c47 185 0 0.370539f
c48 135 0 0.309607f
c49 126 0 4.91766f
c50 124 0 0.105999f
c51 116 0 0.309607f
c52 107 0 4.91903f
c53 105 0 0.105999f
c54 85 0 0.309607f
c55 76 0 4.91903f
c56 74 0 0.105999f
c57 66 0 0.309607f
c58 57 0 4.92132f
c59 55 0 0.106492f
c60 35 0 0.293407f
c61 26 0 4.88963f
c62 24 0 0.105999f
c63 16 0 4.85834f
c64 7 0 4.97021f
c65 5 0 0.112859f
r66 420 421 0.32439 
r67 417 418 0.32839 
r68 414 415 0.32839 
r69 405 407 6 
r70 381 383 0.0341463 
r71 377 379 6 
r72 376 383 0.02 
r73 376 377 3.54667 
r74 373 407 6 
r75 371 381 0.02 
r76 371 373 5.05333 
r77 369 379 10.4077 
r78 368 423 0.219512 
r79 421 368 0.16439 
r80 366 368 6 
r81 365 370 0.0142174 
r82 365 366 0.21561 
r83 364 420 0.219512 
r84 418 364 0.16039 
r85 362 364 6 
r86 361 417 0.219512 
r87 415 361 0.16039 
r88 359 361 6 
r89 359 362 0.708293 
r90 357 414 0.219512 
r91 411 357 0.16039 
r92 355 357 6 
r93 355 359 0.708293 
r94 354 370 0.0142174 
r95 354 362 0.462439 
r96 353 369 0.0446983 
r97 352 370 0.0327344 
r98 352 353 0.149677 
r99 349 409 6 
r100 346 405 3.37032 
r101 402 346 11.4052 
r102 344 346 6 
r103 344 349 1.15143 
r104 341 399 6 
r105 338 341 0.708293 
r106 338 396 6 
r107 335 338 0.708293 
r108 335 393 6 
r109 331 335 0.708293 
r110 331 390 6 
r111 327 328 0.12 
r112 324 327 0.0451268 
r113 320 409 0.211429 
r114 319 322 0.0785714 
r115 319 320 0.02 
r116 311 322 0.02 
r117 311 312 3.31571 
r118 309 312 0.0461631 
r119 309 310 0.30026 
r120 304 318 0.0327921 
r121 303 318 0.0327921 
r122 302 310 0.0449793 
r123 302 303 0.0943284 
r124 301 317 0.0343218 
r125 300 318 0.00972501 
r126 300 301 0.514286 
r127 295 317 0.00843222 
r128 295 296 1.59625 
r129 290 315 0.0200702 
r130 290 291 1.20375 
r131 288 317 0.0343218 
r132 288 289 0.614603 
r133 287 315 0.0982456 
r134 286 289 0.0452323 
r135 286 287 0.395385 
r136 304 285 1.59625 
r137 249 246 2.3375 
r138 328 246 6 
r139 324 243 2.67 
r140 243 402 6 
r141 242 249 2.0425 
r142 237 238 2.0425 
r143 236 242 0.0446983 
r144 235 237 0.0446983 
r145 235 236 0.51 
r146 207 211 394.95 
r147 423 206 2.81176 
r148 206 207 1.5 
r149 198 209 394.95 
r150 197 421 2.74706 
r151 197 198 1.5 
r152 195 211 394.95 
r153 194 195 1.5 
r154 399 191 0.219512 
r155 191 194 2.78235 
r156 188 399 0.164878 
r157 186 209 394.95 
r158 185 188 2.74706 
r159 185 186 1.5 
r160 135 188 0.323902 
r161 396 135 0.219512 
r162 127 420 2.07647 
r163 126 141 394.95 
r164 126 127 4.2601 
r165 125 135 2.07647 
r166 124 141 394.95 
r167 124 125 4.2601 
r168 116 396 0.160878 
r169 108 418 2.07647 
r170 107 122 394.95 
r171 107 108 4.2601 
r172 106 116 2.07647 
r173 105 122 394.95 
r174 105 106 4.2601 
r175 85 116 0.327902 
r176 393 85 0.219512 
r177 77 417 2.07647 
r178 76 91 394.95 
r179 76 77 4.2601 
r180 75 85 2.07647 
r181 74 91 394.95 
r182 74 75 4.2601 
r183 66 393 0.160878 
r184 58 415 2.07647 
r185 57 72 394.95 
r186 57 58 4.2601 
r187 56 66 2.07647 
r188 55 72 394.95 
r189 55 56 4.2601 
r190 35 66 0.327902 
r191 390 35 0.219512 
r192 27 414 2.07647 
r193 26 41 394.95 
r194 26 27 4.2601 
r195 25 35 2.07647 
r196 24 41 394.95 
r197 24 25 4.2601 
r198 16 390 0.160878 
r199 8 411 2.07647 
r200 7 22 394.95 
r201 7 8 4.2601 
r202 6 16 2.07647 
r203 5 22 394.95 
r204 5 6 4.2601 
.ends
