* File: pc3b03u.dist.sp.pex
* Created: Sun Jul  4 12:14:42 2010
* Program "Calibre xRC"
* Version "v2008.4_19.14"
* Nominal Temperature: 27C
* Circuit Temperature: 27C
* 
.subckt PM_PC3B03U%PAD 21 50 79 108 137 166 218 242 266 290 320 326 389 428 452
+ 459
c0 467 0 29.7343f
c1 460 0 83.2789f
c2 459 0 64.3341f
c3 456 0 159.215f
c4 451 0 1.02644f
c5 444 0 9.95288f
c6 434 0 14.4399f
c7 425 0 0.117887f
c8 423 0 214.603f
c9 408 0 15.3329f
c10 397 0 46.9231f
c11 392 0 65.4578f
c12 390 0 15.895f
c13 389 0 1.04872f
c14 388 0 3.87636f
c15 326 0 13.4236f
c16 320 0 13.415f
c17 290 0 13.4098f
c18 266 0 13.4219f
c19 242 0 13.6994f
c20 218 0 13.4116f
c21 176 0 7.52869f
c22 166 0 2.98552f
c23 149 0 6.78371f
c24 137 0 2.98621f
c25 120 0 6.78371f
c26 108 0 2.98621f
c27 91 0 6.78371f
c28 79 0 2.9856f
c29 62 0 6.78371f
c30 50 0 2.98471f
c31 33 0 6.78371f
c32 21 0 2.98457f
c33 4 0 6.78371f
r34 467 468 0.118407 
r35 466 467 0.118407 
r36 465 466 0.056883 
r37 464 465 0.061524 
r38 463 464 0.118407 
r39 462 463 0.0830354 
r40 461 462 0.0353716 
r41 459 460 0.0126934 
r42 457 459 0.000382252 
r43 456 457 0.0669731 
r44 451 452 0.00916 
r45 444 462 0.0545455 
r46 434 465 0.015 
r47 425 428 0.00916 
r48 425 451 2 
r49 423 434 0.0264274 
r50 421 423 0.147454 
r51 421 422 0.0288462 
r52 415 416 0.00752787 
r53 414 415 0.021023 
r54 412 414 0.000537705 
r55 412 456 0.00162999 
r56 410 412 0.000537705 
r57 408 410 0.0285508 
r58 399 451 0.1388 
r59 398 399 0.132996 
r60 397 398 0.0171733 
r61 394 395 0.0171733 
r62 393 394 0.0171733 
r63 392 393 0.0171733 
r64 391 397 0.0142401 
r65 391 395 0.00293318 
r66 390 422 0.00646891 
r67 390 392 0.00818451 
r68 388 444 0.202116 
r69 388 389 0.0147368 
r70 315 320 0.0072093 
r71 392 315 0.0566038 
r72 313 326 0.0072093 
r73 398 313 0.0566038 
r74 286 290 0.0072093 
r75 397 286 0.0566038 
r76 262 266 0.0072093 
r77 395 262 0.0566038 
r78 238 242 0.0072093 
r79 394 238 0.0566038 
r80 214 218 0.0072093 
r81 393 214 0.0566038 
r82 194 197 0.0022831 
r83 416 194 0.0375475 
r84 194 457 0.00547945 
r85 414 193 0.00210084 
r86 191 193 0.000537705 
r87 410 191 0.00210084 
r88 193 182 0.0105115 
r89 415 182 0.00712251 
r90 178 197 0.0187738 
r91 182 178 0.00376393 
r92 416 178 0.00712251 
r93 176 191 0.0142754 
r94 408 176 0.00356125 
r95 460 173 0.345778 
r96 172 468 0.0220132 
r97 172 173 0.319822 
r98 166 153 0.00249413 
r99 173 153 0.0425532 
r100 149 166 0.00249413 
r101 173 149 0.0425532 
r102 460 144 0.345778 
r103 143 467 0.0220132 
r104 143 144 0.319822 
r105 137 124 0.00249413 
r106 144 124 0.0425532 
r107 120 137 0.00249413 
r108 144 120 0.0425532 
r109 460 115 0.345778 
r110 114 466 0.0220132 
r111 114 115 0.319822 
r112 108 95 0.00249413 
r113 115 95 0.0425532 
r114 91 108 0.00249413 
r115 115 91 0.0425532 
r116 460 86 0.345778 
r117 85 464 0.0220132 
r118 85 86 0.319822 
r119 79 66 0.00249413 
r120 86 66 0.0425532 
r121 62 79 0.00249413 
r122 86 62 0.0425532 
r123 460 57 0.345778 
r124 56 463 0.0220132 
r125 56 57 0.319822 
r126 50 37 0.00249413 
r127 57 37 0.0425532 
r128 33 50 0.00249413 
r129 57 33 0.0425532 
r130 460 28 0.345778 
r131 27 461 0.0220132 
r132 27 28 0.319822 
r133 21 8 0.00249413 
r134 28 8 0.0425532 
r135 4 21 0.00249413 
r136 28 4 0.0425532 
.ends

.subckt PM_PC3B03U%noxref_2 8 18
c0 20 0 4.82222f
c1 18 0 0.993329f
c2 8 0 6.70681f
r3 18 20 0.158105 
r4 20 8 0.158526 
.ends

.subckt PM_PC3B03U%U28_padr 40 46 54 116 118 120 161 170
c0 244 0 16.2151f
c1 238 0 9.31824f
c2 229 0 15.9823f
c3 215 0 0.145078f
c4 214 0 0.0372956f
c5 213 0 0.0478417f
c6 212 0 0.0873247f
c7 209 0 6.60978f
c8 206 0 0.611623f
c9 204 0 5.63632f
c10 202 0 0.516633f
c11 200 0 0.0693973f
c12 199 0 0.207306f
c13 198 0 0.411447f
c14 189 0 1.2482f
c15 184 0 1.73033f
c16 175 0 1.83121f
c17 170 0 1.07645f
c18 169 0 0.703354f
c19 165 0 2.52281f
c20 164 0 0.284412f
c21 161 0 0.861317f
c22 142 0 0.093022f
c23 136 0 0.0843457f
c24 128 0 16.1223f
c25 120 0 1.09106f
c26 118 0 0.567391f
c27 116 0 1.02291f
c28 86 0 0.394633f
c29 83 0 0.386024f
c30 82 0 0.370735f
c31 80 0 0.40312f
c32 76 0 0.421448f
c33 73 0 0.433354f
c34 70 0 0.226943f
c35 69 0 0.0193661f
c36 68 0 0.0834583f
c37 66 0 0.0580109f
c38 65 0 0.0700572f
c39 64 0 0.0831665f
c40 60 0 0.30153f
c41 58 0 0.0331349f
c42 57 0 0.0954138f
c43 54 0 1.27015f
c44 51 0 0.068806f
c45 50 0 0.372865f
c46 46 0 2.39968f
c47 44 0 0.512434f
c48 40 0 2.3275f
r49 244 231 0.172857 
r50 229 231 6 
r51 225 227 3.984 
r52 215 217 3 
r53 214 215 0.109474 
r54 214 212 0.0456991 
r55 212 213 0.147143 
r56 209 244 2 
r57 207 213 0.0446983 
r58 207 209 10.3129 
r59 206 217 0.30381 
r60 238 204 0.185079 
r61 202 204 1.2 
r62 201 202 0.482857 
r63 199 201 0.0446983 
r64 199 200 0.125714 
r65 198 200 0.0446983 
r66 197 206 0.0446983 
r67 197 198 0.407619 
r68 194 195 6 
r69 191 229 6.57333 
r70 227 191 4.42 
r71 189 191 6 
r72 189 194 0.8816 
r73 169 238 0.18836 
r74 169 170 0.0147368 
r75 164 195 0.0840267 
r76 162 164 0.0448127 
r77 162 165 2.62845 
r78 165 161 0.0773806 
r79 127 128 0.434667 
r80 108 120 168.333 
r81 108 142 3.92502 
r82 103 118 51.6667 
r83 102 103 1.66667 
r84 95 116 168.333 
r85 136 95 3.6393 
r86 184 90 6 
r87 87 187 0.8025 
r88 184 87 2.8475 
r89 87 128 6 
r90 86 142 0.77 
r91 187 86 6 
r92 83 182 1.2525 
r93 83 227 6 
r94 82 136 0.7825 
r95 182 82 6 
r96 175 80 6 
r97 77 178 0.8 
r98 175 77 2.88 
r99 77 127 6 
r100 178 76 6 
r101 73 173 0.482667 
r102 73 225 6 
r103 72 127 3.75467 
r104 173 72 6 
r105 70 90 0.05 
r106 66 76 0.642857 
r107 65 80 0.642857 
r108 64 70 0.0446983 
r109 63 69 0.0338756 
r110 63 64 0.1875 
r111 60 102 1.16667 
r112 59 69 0.0338756 
r113 59 60 0.245 
r114 57 69 0.00880368 
r115 57 58 0.25 
r116 53 58 0.0446983 
r117 53 54 1.2575 
r118 52 54 1.3775 
r119 50 52 0.0447588 
r120 50 51 0.544 
r121 68 46 2.375 
r122 44 68 0.12 
r123 43 66 0.0449572 
r124 43 44 0.8475 
r125 39 65 0.0449572 
r126 39 40 1.4975 
r127 38 51 0.0447588 
r128 38 40 1.3775 
.ends

.subckt PM_PC3B03U%VDDO 757 762 769 776 783 790 797 804 863 869 873 925 954 959
+ 966 992 1049 1342 1346 1349 1354 1361 1368 1389 1417 1428 1436 1443 1449 1455
+ 1461 1467 1473 1479 1485 1495 1537 1554 1583 1588
c0 1588 0 21.1358f
c1 1580 0 4.29165f
c2 1571 0 6.89048f
c3 1562 0 8.851f
c4 1557 0 6.02232f
c5 1554 0 53.0749f
c6 1533 0 3.00295f
c7 1499 0 9.73032f
c8 1492 0 0.50151f
c9 1485 0 1.39365f
c10 1479 0 2.72268f
c11 1473 0 1.37591f
c12 1467 0 1.72366f
c13 1461 0 2.07585f
c14 1455 0 0.814691f
c15 1449 0 1.88775f
c16 1443 0 2.50375f
c17 1440 0 5.4605f
c18 1425 0 0.505473f
c19 1421 0 30.9521f
c20 1420 0 1.97524f
c21 1417 0 65.1028f
c22 1416 0 1.61686f
c23 1367 0 52.7638f
c24 1357 0 0.697612f
c25 1356 0 1.41036f
c26 1354 0 3.00838f
c27 1346 0 2.51855f
c28 1334 0 0.132328f
c29 1324 0 0.331843f
c30 1320 0 0.211996f
c31 1314 0 0.234896f
c32 1304 0 0.619014f
c33 1300 0 0.300027f
c34 1296 0 0.616262f
c35 1291 0 1.62924f
c36 1286 0 2.49269f
c37 1249 0 9.76182f
c38 1073 0 0.341159f
c39 1071 0 3.49386f
c40 1056 0 11.8398f
c41 1049 0 0.0820249f
c42 1043 0 0.480852f
c43 1014 0 4.04218f
c44 1009 0 0.474075f
c45 1008 0 0.125713f
c46 1006 0 0.288987f
c47 1002 0 0.0321078f
c48 1000 0 8.42987f
c49 999 0 3.54206f
c50 994 0 0.911179f
c51 991 0 0.0193183f
c52 989 0 0.0208492f
c53 988 0 5.85763f
c54 986 0 0.195578f
c55 976 0 0.0967967f
c56 973 0 0.0596675f
c57 972 0 3.19619f
c58 971 0 1.09777f
c59 966 0 1.44807f
c60 963 0 0.451293f
c61 959 0 1.38454f
c62 945 0 0.336966f
c63 942 0 0.671064f
c64 936 0 0.0312283f
c65 935 0 0.967804f
c66 925 0 1.45951f
c67 809 0 7.25248f
c68 797 0 0.00989968f
c69 790 0 0.00989968f
c70 783 0 0.0234465f
c71 776 0 0.0106158f
c72 769 0 0.0106158f
c73 762 0 0.00828265f
c74 757 0 7.66279f
c75 729 0 12.0948f
c76 727 0 19.7809f
c77 725 0 19.7809f
c78 723 0 19.6269f
c79 721 0 19.7809f
c80 719 0 19.7804f
c81 717 0 11.8819f
c82 691 0 0.114944f
c83 690 0 7.03459f
c84 687 0 0.104443f
c85 686 0 6.33357f
c86 17 0 0.486838f
c87 16 0 6.73982f
c88 7 0 0.152029f
c89 6 0 6.75738f
r90 1583 1586 0.00394881 
r91 1580 1581 0.956244 
r92 1573 1574 0.279231 
r93 1571 1573 0.266538 
r94 1564 1565 0.273962 
r95 1562 1564 0.261509 
r96 1558 1559 1.79477 
r97 1557 1558 0.000373832 
r98 1551 1552 0.246231 
r99 1550 1551 0.0757298 
r100 1549 1550 0.0205664 
r101 1548 1549 0.0291503 
r102 1547 1548 0.0440959 
r103 1546 1547 0.0124619 
r104 1545 1546 0.0360784 
r105 1544 1545 0.0354684 
r106 1543 1544 0.0127233 
r107 1542 1543 0.0260566 
r108 1535 1554 0.00304139 
r109 1552 1535 0.00174292 
r110 1533 1535 0.461538 
r111 1492 1495 0.0002 
r112 1492 1551 0.666667 
r113 1488 1550 0.6 
r114 1485 1488 0.4475 
r115 1482 1549 0.6 
r116 1479 1482 1.6625 
r117 1476 1548 0.666667 
r118 1473 1476 0.365 
r119 1470 1547 0.545455 
r120 1467 1470 1.4825 
r121 1464 1546 0.545455 
r122 1461 1464 1.63 
r123 1458 1545 0.75 
r124 1455 1458 0.1575 
r125 1452 1544 0.75 
r126 1449 1452 1.1525 
r127 1446 1543 0.5 
r128 1443 1446 1.455 
r129 1537 1442 0.00305011 
r130 1440 1442 0.461538 
r131 1436 1580 0.2 
r132 1432 1588 0.0039415 
r133 1586 1432 0.467422 
r134 1430 1432 0.5 
r135 1428 1430 0.181 
r136 1425 1428 0.17 
r137 1425 1552 1.5 
r138 1422 1423 0.5433 
r139 1421 1422 0.2247 
r140 1420 1436 0.0528252 
r141 1420 1423 0.099 
r142 1581 1416 0.698216 
r143 1414 1416 0.2 
r144 1414 1417 0.0136564 
r145 1574 1413 0.279231 
r146 1413 1411 0.279231 
r147 1411 1409 0.279231 
r148 1409 1407 0.266538 
r149 1405 1407 1.5 
r150 1405 1409 1.5 
r151 1405 1411 1.5 
r152 1405 1413 1.5 
r153 1405 1414 0.0314855 
r154 1565 1403 0.273962 
r155 1403 1401 0.273962 
r156 1401 1399 0.273962 
r157 1399 1397 0.261509 
r158 1395 1397 1.5 
r159 1395 1399 1.5 
r160 1395 1401 1.5 
r161 1395 1403 1.5 
r162 1559 1394 0.000747664 
r163 1392 1394 0.2 
r164 1392 1395 0.0334274 
r165 1389 1392 0.01361 
r166 1383 1573 1.5 
r167 1383 1571 1.5 
r168 1383 1574 1.5 
r169 1381 1383 0.0694058 
r170 1375 1564 1.5 
r171 1375 1562 1.5 
r172 1375 1381 0.0805639 
r173 1375 1565 1.5 
r174 1371 1557 0.2 
r175 1371 1375 0.0404834 
r176 1368 1371 0.0165962 
r177 1367 1436 0.0245381 
r178 1367 1383 0.0330312 
r179 1364 1586 0.5 
r180 1361 1364 0.181 
r181 1359 1542 0.0183007 
r182 1442 1359 0.00174292 
r183 1357 1359 1.5 
r184 1357 1361 0.17 
r185 1356 1421 0.5293 
r186 1352 1354 0.0526456 
r187 1349 1352 0.0552365 
r188 1332 1334 0.12 
r189 1326 1329 3 
r190 1499 1326 0.0677429 
r191 1324 1326 3 
r192 1499 1316 0.1116 
r193 1530 1316 0.0028 
r194 1314 1316 6 
r195 1293 1334 0.02 
r196 1290 1332 0.02 
r197 1290 1291 2.92286 
r198 1249 1530 0.2648 
r199 1248 1530 0.2664 
r200 1247 1530 0.2664 
r201 1066 1073 1 
r202 1063 1320 3 
r203 1060 1063 0.2885 
r204 1060 1300 2 
r205 1056 1304 1.2 
r206 1053 1056 1.03355 
r207 1048 1049 1.8985 
r208 1047 1048 0.7455 
r209 1314 1027 0.000149533 
r210 1356 1026 0.0555566 
r211 1026 1027 6 
r212 1025 1329 0.0444444 
r213 1324 1025 7.40741e-05 
r214 1356 1024 0.0279474 
r215 1024 1025 1.5 
r216 1300 1023 0.000233918 
r217 1422 1023 2 
r218 1304 1021 0.000114123 
r219 1421 1021 1.2 
r220 1073 1019 0.000100503 
r221 1423 1019 1 
r222 1320 1017 0.000299625 
r223 1422 1017 3 
r224 1296 1014 6 
r225 1296 1011 0.804286 
r226 1011 1053 6 
r227 1293 1009 0.787143 
r228 1009 1048 6 
r229 1008 1071 0.0561431 
r230 1291 1008 6 
r231 1286 1006 6 
r232 1286 1003 3.395 
r233 1003 1047 6 
r234 1002 1043 0.0484211 
r235 1542 1002 2 
r236 1000 1066 0.219259 
r237 999 1063 0.0845 
r238 998 1014 5.04429 
r239 992 994 0.605623 
r240 990 1060 1.917 
r241 990 991 0.0149881 
r242 988 1049 0.4775 
r243 988 989 0.013668 
r244 984 1006 0.175 
r245 983 986 0.1525 
r246 983 984 0.02 
r247 976 1047 0.568 
r248 975 1533 0.526 
r249 975 1000 0.0447005 
r250 974 1533 2.122 
r251 974 999 0.0446983 
r252 972 998 0.0446983 
r253 972 973 3.31857 
r254 992 971 0.584127 
r255 970 973 0.0446983 
r256 970 971 1.02286 
r257 965 991 0.0313149 
r258 965 966 1.51 
r259 964 989 0.013668 
r260 963 991 0.0149881 
r261 963 964 0.2995 
r262 958 989 0.0337919 
r263 958 959 1.64138 
r264 994 954 1.36714 
r265 942 945 0.81913 
r266 941 945 0.309565 
r267 935 941 0.0446983 
r268 935 936 2.21913 
r269 933 936 0.0447246 
r270 933 1071 4.4 
r271 924 986 0.02 
r272 924 925 1.3925 
r273 920 1440 2.122 
r274 920 976 0.0446983 
r275 945 873 5.56667 
r276 942 869 5.56667 
r277 863 1043 5.54444 
r278 809 757 0.159252 
r279 820 757 0.159252 
r280 757 827 0.159252 
r281 731 820 0.0829907 
r282 757 731 0.0291589 
r283 1581 731 0.1 
r284 762 729 0.793846 
r285 1571 729 1.5 
r286 769 727 0.55145 
r287 1573 727 1.5 
r288 776 725 0.55145 
r289 1574 725 1.5 
r290 783 723 0.55145 
r291 1413 723 1.5 
r292 790 721 0.55145 
r293 1411 721 1.5 
r294 797 719 0.55145 
r295 1409 719 1.5 
r296 804 717 0.793846 
r297 1407 717 1.5 
r298 715 762 0.842637 
r299 1562 715 1.5 
r300 713 769 0.585344 
r301 1564 713 1.5 
r302 711 776 0.585344 
r303 1565 711 1.5 
r304 709 783 0.585344 
r305 1403 709 1.5 
r306 707 790 0.585344 
r307 1401 707 1.5 
r308 705 797 0.585344 
r309 1399 705 1.5 
r310 703 804 0.842637 
r311 1397 703 1.5 
r312 757 701 0.0391734 
r313 1559 701 0.2 
r314 699 757 0.0397569 
r315 1558 699 0.2 
r316 697 827 0.73271 
r317 696 809 0.737944 
r318 695 757 0.73271 
r319 694 757 0.737944 
r320 691 695 0.0451326 
r321 691 757 2.504 
r322 690 697 0.0451326 
r323 690 757 2.44889 
r324 687 694 0.045921 
r325 687 757 2.687 
r326 686 696 0.045921 
r327 686 757 2.885 
r328 323 1405 0.0601494 
r329 1395 323 0.0634357 
r330 323 1352 0.00227273 
r331 322 1346 0.0620926 
r332 1342 322 0.0688218 
r333 1381 322 0.0025 
r334 17 1530 1.51848 
r335 16 1249 0.0447329 
r336 16 1530 1.51162 
r337 15 1326 0.0737243 
r338 15 17 0.0447329 
r339 1248 7 0.0447329 
r340 7 1530 1.51848 
r341 6 1247 0.0447329 
r342 6 1530 1.51162 
.ends

.subckt PM_PC3B03U%net_m71_VSSO_res 9 38
c0 39 0 0.793278f
c1 33 0 0.91169f
c2 30 0 1.17864f
c3 24 0 0.0629758f
c4 23 0 0.338318f
c5 22 0 0.0527767f
c6 21 0 1.4228f
c7 20 0 0.960671f
r8 33 39 2.46349 
r9 33 38 1.8 
r10 29 30 0.987826 
r11 25 39 0.596923 
r12 23 25 0.0472932 
r13 23 24 0.351765 
r14 21 29 0.0468981 
r15 21 22 2.02471 
r16 20 24 0.0446983 
r17 19 22 0.0446983 
r18 19 20 1.4 
r19 30 9 5.56667 
.ends

.subckt PM_PC3B03U%net_m32_VSSO_res 21 102 106 110 114 118
c0 118 0 0.519409f
c1 114 0 0.519409f
c2 110 0 0.519409f
c3 106 0 0.717118f
c4 102 0 0.73297f
c5 98 0 0.864799f
c6 92 0 0.0518462f
c7 58 0 0.0631005f
c8 48 0 0.242979f
c9 47 0 0.19588f
c10 46 0 0.135544f
c11 45 0 0.102874f
c12 44 0 0.162435f
c13 28 0 0.595665f
c14 26 0 0.0473986f
c15 25 0 0.371245f
r16 93 98 0.0552941 
r17 92 93 0.02 
r18 91 92 0.124706 
r19 59 102 85 
r20 57 118 85 
r21 57 58 0.93595 
r22 56 114 85 
r23 55 56 1.5553 
r24 54 98 2.20253 
r25 53 55 6.2212 
r26 53 54 1.5553 
r27 52 110 85 
r28 51 53 10.0922 
r29 51 52 1.5553 
r30 50 106 85 
r31 49 58 2.23066 
r32 48 59 3.37824 
r33 48 49 10.8571 
r34 47 55 4.70046 
r35 46 58 2.23066 
r36 46 47 9 
r37 45 50 3.37824 
r38 44 51 2.90323 
r39 44 45 10.8571 
r40 27 28 0.18 
r41 91 26 0.0446983 
r42 25 27 0.0446983 
r43 25 26 0.521176 
r44 28 21 5.56667 
.ends

.subckt PM_PC3B03U%VSS 587 773 804 826 851 856 869 871 876
c0 876 0 92.2835f
c1 869 0 55.5964f
c2 854 0 2.37405f
c3 851 0 0.00368951f
c4 848 0 1.24098f
c5 835 0 1.21678f
c6 822 0 1.88726f
c7 815 0 15.6512f
c8 801 0 1.45504f
c9 786 0 25.3164f
c10 784 0 0.0842555f
c11 783 0 0.0657505f
c12 782 0 7.75835f
c13 780 0 0.269279f
c14 777 0 0.0372194f
c15 773 0 4.21666f
c16 770 0 0.198007f
c17 768 0 0.849344f
c18 765 0 10.418f
c19 758 0 8.74316f
c20 755 0 0.253082f
c21 754 0 0.0998472f
c22 753 0 1.91336f
c23 629 0 2.25025f
c24 625 0 2.49124f
c25 620 0 1.8723f
c26 618 0 0.273161f
c27 616 0 0.276497f
c28 613 0 26.6344f
c29 607 0 0.816164f
c30 606 0 6.34069f
c31 600 0 2.03915f
c32 594 0 0.137389f
c33 593 0 2.4894f
c34 592 0 0.154374f
c35 591 0 2.27078f
c36 587 0 0.00279637f
c37 539 0 0.162892f
c38 537 0 0.72248f
c39 535 0 0.203897f
c40 510 0 2.94312f
c41 496 0 3.05957f
c42 494 0 0.031054f
c43 491 0 0.729043f
c44 490 0 7.74042f
c45 489 0 0.203811f
c46 474 0 5.70515f
c47 471 0 3.25514f
r48 871 874 0.000703354 
r49 867 869 0.00318245 
r50 866 867 0.00119641 
r51 865 866 0.0758524 
r52 864 865 0.0344168 
r53 863 864 0.167059 
r54 862 863 0.0871386 
r55 861 862 0.0414357 
r56 860 861 0.0141176 
r57 859 860 0.089651 
r58 856 859 0.00438684 
r59 854 867 0.461538 
r60 848 851 1.28857 
r61 848 865 1.5 
r62 842 863 0.0535714 
r63 840 861 1.5 
r64 840 842 1.612 
r65 835 838 0.045 
r66 835 862 0.666667 
r67 829 866 0.428571 
r68 826 829 0.189 
r69 824 876 0.000702051 
r70 874 824 0.0832563 
r71 822 824 0.131579 
r72 822 826 0.013 
r73 819 820 0.56934 
r74 818 819 1.12447 
r75 815 818 0.628223 
r76 815 864 0.3 
r77 807 859 0.428571 
r78 804 807 0.189 
r79 801 804 0.013 
r80 801 874 0.131579 
r81 782 842 2.8715 
r82 782 783 0.0338756 
r83 786 779 1 
r84 779 780 0.0155975 
r85 777 840 1.283 
r86 776 784 0.0338756 
r87 775 783 0.0338756 
r88 773 846 2.59036 
r89 844 773 1.07807 
r90 772 784 0.00880368 
r91 772 773 0.958 
r92 771 783 0.00880368 
r93 771 773 0.986 
r94 780 770 0.0632911 
r95 770 768 0.0574488 
r96 765 784 0.0338756 
r97 764 777 0.0448201 
r98 761 854 1.518 
r99 760 854 0.426 
r100 758 846 1.08482 
r101 755 844 1.06072 
r102 754 773 3.1035 
r103 753 754 0.0448201 
r104 753 764 2.13041 
r105 765 631 0.733 
r106 773 631 1.93 
r107 629 788 3 
r108 844 625 1 
r109 788 620 0.24 
r110 819 620 1.5 
r111 631 618 3 
r112 818 618 3 
r113 616 846 3 
r114 820 616 3 
r115 613 812 1.1314 
r116 613 860 0.125 
r117 612 625 0.0075 
r118 634 612 0.056 
r119 812 612 0.24 
r120 608 786 0.9662 
r121 608 634 0.02 
r122 607 776 0.5005 
r123 761 607 0.0446983 
r124 606 775 0.5005 
r125 760 606 0.0446983 
r126 605 629 0.830244 
r127 604 629 0.573659 
r128 599 600 1.37048 
r129 594 605 0.0448242 
r130 594 595 0.678222 
r131 593 600 0.0447675 
r132 593 595 0.650667 
r133 592 604 0.0446983 
r134 591 599 0.0447067 
r135 591 592 1.45854 
r136 838 587 0.31875 
r137 538 539 0.147619 
r138 534 535 0.14988 
r139 758 534 0.0380723 
r140 531 533 0.143333 
r141 755 530 0.0385542 
r142 528 530 0.14506 
r143 773 527 0.159 
r144 510 773 0.159 
r145 509 539 0.02 
r146 509 527 1.247 
r147 508 535 0.02 
r148 508 510 1.243 
r149 773 507 0.192 
r150 505 773 0.192 
r151 504 505 0.342 
r152 773 504 0.192 
r153 502 773 0.192 
r154 501 502 0.342 
r155 773 501 0.192 
r156 499 773 0.192 
r157 498 499 0.342 
r158 773 498 0.192 
r159 496 773 0.192 
r160 495 538 0.02 
r161 495 507 1.214 
r162 494 537 0.04 
r163 494 496 0.243 
r164 492 534 0.02 
r165 492 537 0.938734 
r166 779 491 0.102486 
r167 490 538 0.0380952 
r168 490 491 4.80524 
r169 489 768 0.555238 
r170 489 533 0.0380952 
r171 773 485 0.159 
r172 483 773 0.159 
r173 482 483 0.408 
r174 773 482 0.159 
r175 480 773 0.159 
r176 479 480 0.408 
r177 773 479 0.159 
r178 477 773 0.159 
r179 476 477 0.408 
r180 773 476 0.159 
r181 474 773 0.159 
r182 473 533 0.02 
r183 473 485 1.247 
r184 472 530 0.02 
r185 472 474 1.243 
r186 471 531 0.02 
r187 470 528 0.02 
r188 470 471 4.69271 
.ends

.subckt PM_PC3B03U%U28_U42_r1 149 154 159 164 169 174 188
c0 301 0 0.256896f
c1 297 0 0.130993f
c2 295 0 0.458247f
c3 290 0 0.459063f
c4 281 0 2.82662f
c5 267 0 0.46935f
c6 262 0 0.712979f
c7 261 0 0.670736f
c8 256 0 0.304369f
c9 254 0 0.273588f
c10 252 0 0.0792102f
c11 251 0 0.329567f
c12 248 0 6.54958f
c13 242 0 1.16697f
c14 241 0 0.15976f
c15 240 0 1.16995f
c16 239 0 0.16201f
c17 238 0 9.0818f
c18 237 0 0.287701f
c19 235 0 0.606217f
c20 231 0 0.136486f
c21 225 0 0.0903556f
c22 217 0 0.171215f
c23 211 0 0.680566f
c24 203 0 0.534966f
c25 195 0 0.535215f
c26 189 0 0.300179f
c27 188 0 0.278026f
c28 181 0 0.163718f
c29 180 0 0.607807f
c30 179 0 0.168943f
c31 178 0 0.608149f
c32 177 0 0.169158f
c33 176 0 0.538598f
c34 174 0 3.10391f
c35 169 0 3.04886f
c36 164 0 3.04886f
c37 159 0 3.04886f
c38 154 0 3.04886f
c39 149 0 3.10219f
r40 269 301 0.00341463 
r41 267 269 3 
r42 264 295 0.00292683 
r43 292 264 0.0526829 
r44 262 264 1.5 
r45 259 290 0.00536585 
r46 287 259 0.0502439 
r47 257 259 1.5 
r48 257 261 0.0965568 
r49 255 267 0.05061 
r50 255 256 0.662857 
r51 254 267 0.05061 
r52 253 254 0.202353 
r53 251 256 0.0446983 
r54 251 252 0.352857 
r55 248 297 6 
r56 246 252 0.0448488 
r57 246 248 6.78194 
r58 262 242 0.117875 
r59 242 261 1.448 
r60 257 240 0.115897 
r61 240 241 1.452 
r62 238 253 0.0487211 
r63 238 239 10.986 
r64 283 237 0.0521951 
r65 235 237 3 
r66 234 241 0.062236 
r67 234 235 0.06528 
r68 233 239 0.062236 
r69 233 235 0.13632 
r70 229 297 0.130323 
r71 228 231 0.153548 
r72 228 229 0.02 
r73 225 281 6 
r74 223 231 0.02 
r75 223 225 0.132903 
r76 222 281 3.99613 
r77 221 222 0.026898 
r78 217 221 0.10143 
r79 217 188 0.106667 
r80 181 211 1.85294 
r81 180 203 5.05882 
r82 179 203 5.05882 
r83 178 195 5.05882 
r84 177 195 5.05882 
r85 176 189 1.85294 
r86 171 181 3.88985 
r87 171 174 183.96 
r88 166 180 3.88985 
r89 166 169 183.96 
r90 161 179 3.88985 
r91 161 164 183.96 
r92 156 178 3.88985 
r93 156 159 183.96 
r94 151 177 3.88985 
r95 151 154 183.96 
r96 146 176 3.88985 
r97 146 149 183.96 
r98 211 99 0.00142683 
r99 301 99 3 
r100 203 81 0.00142683 
r101 295 81 3 
r102 195 56 0.00142683 
r103 290 56 3 
r104 203 45 0.0277856 
r105 292 45 3 
r106 189 20 0.00142683 
r107 283 20 3 
r108 195 9 0.0277856 
r109 287 9 3 
.ends

.subckt PM_PC3B03U%VSSO 348 354 358 419 659 873 877 884 913 920 932 946 948 953
+ 956 960 967 973 977 981 988 994 998 1005 1011 1015 1022 1028 1032 1039 1045
+ 1057 1097 1103 1107 1113
c0 1113 0 32.0874f
c1 1100 0 2.00115f
c2 1097 0 10.4693f
c3 1091 0 7.93618f
c4 1089 0 6.95875f
c5 1084 0 6.95903f
c6 1079 0 6.96073f
c7 1074 0 6.96397f
c8 1069 0 6.9659f
c9 1061 0 0.0965263f
c10 1057 0 0.00391448f
c11 1052 0 8.95235f
c12 1045 0 0.342408f
c13 1032 0 1.36597f
c14 1028 0 1.40025f
c15 1015 0 1.35721f
c16 1011 0 1.35624f
c17 998 0 1.34294f
c18 994 0 1.34013f
c19 981 0 1.20335f
c20 977 0 0.840215f
c21 973 0 1.37894f
c22 960 0 2.02532f
c23 956 0 1.55498f
c24 953 0 1.69019f
c25 951 0 0.242286f
c26 948 0 0.00103935f
c27 946 0 8.25608e-19
c28 944 0 8.96457f
c29 930 0 7.85649f
c30 926 0 1.27875f
c31 916 0 1.65707f
c32 913 0 58.2593f
c33 880 0 1.34804f
c34 877 0 10.6383f
c35 870 0 0.0652816f
c36 863 0 0.115324f
c37 857 0 0.0962045f
c38 855 0 0.135542f
c39 853 0 0.0549026f
c40 852 0 0.334268f
c41 851 0 2.65199f
c42 848 0 5.0962f
c43 845 0 0.112727f
c44 844 0 0.0408091f
c45 843 0 1.53039f
c46 841 0 0.0508684f
c47 840 0 0.327339f
c48 801 0 36.0733f
c49 800 0 0.687295f
c50 794 0 0.580841f
c51 790 0 0.708327f
c52 786 0 0.04289f
c53 785 0 3.25503f
c54 783 0 0.383003f
c55 782 0 0.713156f
c56 781 0 0.303464f
c57 780 0 3.27963f
c58 779 0 0.383249f
c59 777 0 0.497412f
c60 775 0 0.0157313f
c61 774 0 0.574693f
c62 770 0 2.15428f
c63 768 0 0.0575881f
c64 767 0 0.183911f
c65 766 0 0.343268f
c66 733 0 0.122915f
c67 732 0 8.90513f
c68 699 0 0.269574f
c69 695 0 7.03694f
c70 691 0 0.146306f
c71 486 0 0.60424f
c72 469 0 0.962363f
c73 467 0 0.101486f
c74 465 0 0.0540025f
c75 463 0 1.53056f
c76 462 0 0.0347102f
c77 461 0 0.346471f
c78 448 0 0.963129f
c79 447 0 0.125864f
c80 444 0 0.539914f
c81 440 0 0.0481914f
c82 439 0 0.436605f
c83 419 0 0.114597f
c84 412 0 0.121709f
c85 318 0 7.0477f
c86 282 0 14.0334f
c87 232 0 14.0341f
c88 182 0 14.036f
c89 132 0 14.0388f
c90 82 0 14.0404f
c91 10 0 0.146306f
r92 1111 1113 0.00282778 
r93 1110 1111 0.355444 
r94 1107 1110 0.00283333 
r95 1102 1104 0.010449 
r96 1102 1103 0.02 
r97 1100 1102 0.0140408 
r98 1063 1064 0.0140639 
r99 1056 1057 0.0126606 
r100 1091 1054 0.0113761 
r101 1052 1054 0.0638298 
r102 1049 1095 2 
r103 1045 1049 0.000380952 
r104 946 1056 0.013211 
r105 1052 946 0.000917431 
r106 944 946 0.000913242 
r107 944 1063 0.0638298 
r108 931 932 0.02 
r109 930 1063 0.0113242 
r110 928 930 0.0327869 
r111 928 931 0.0166784 
r112 926 928 0.029258 
r113 923 1111 0.357143 
r114 920 923 0.21 
r115 918 1097 0.00544385 
r116 1095 918 0.0345455 
r117 916 918 1 
r118 916 920 0.445 
r119 911 913 0.00612761 
r120 911 1091 0.0327869 
r121 1039 909 0.130435 
r122 909 1089 0.00301741 
r123 1086 909 0.00301741 
r124 907 909 0.0266667 
r125 907 911 0.0287785 
r126 1022 906 0.130435 
r127 906 1084 0.00301741 
r128 1081 906 0.00301741 
r129 904 906 0.0266667 
r130 904 907 0.0242129 
r131 1005 903 0.130435 
r132 903 1079 0.00301741 
r133 1076 903 0.00301741 
r134 901 903 0.0266667 
r135 901 904 0.0242129 
r136 900 901 0.000615582 
r137 988 899 0.130435 
r138 899 1074 0.00301741 
r139 1071 899 0.00301741 
r140 897 899 0.0266667 
r141 897 900 0.0235973 
r142 967 896 0.130435 
r143 896 1069 0.00301741 
r144 1066 896 0.00301741 
r145 894 896 0.0266667 
r146 894 897 0.0242129 
r147 893 926 0.02 
r148 893 894 0.0277012 
r149 931 890 0.429445 
r150 887 1110 0.357143 
r151 884 887 0.21 
r152 882 1106 0.144104 
r153 1104 882 0.0333061 
r154 880 882 1 
r155 880 884 0.445 
r156 869 1095 0.12246 
r157 869 870 0.00180503 
r158 866 951 3 
r159 863 866 0.0536842 
r160 857 1061 0.0410689 
r161 855 857 3 
r162 854 855 0.148421 
r163 852 854 0.044878 
r164 852 853 0.407059 
r165 851 853 0.0446983 
r166 850 870 0.0865289 
r167 850 851 3.68941 
r168 847 863 0.02 
r169 847 848 6.35789 
r170 844 845 0.1275 
r171 843 844 0.0448391 
r172 842 843 2.75862 
r173 840 842 0.044715 
r174 840 841 0.466667 
r175 1032 839 0.285 
r176 837 839 0.6 
r177 1028 836 0.32 
r178 834 836 0.6 
r179 834 837 0.0396791 
r180 1015 833 0.36 
r181 831 833 0.6 
r182 831 834 0.043262 
r183 1011 830 0.37 
r184 828 830 0.6 
r185 828 831 0.0347594 
r186 827 828 0.0198396 
r187 998 826 0.3225 
r188 824 826 0.6 
r189 824 827 0.07 
r190 994 823 0.325 
r191 821 823 0.6 
r192 821 824 0.0253476 
r193 981 820 0.3425 
r194 818 820 0.6 
r195 818 821 0.0230481 
r196 977 817 0.04 
r197 815 817 0.75 
r198 815 818 0.0475936 
r199 973 814 0.365 
r200 812 814 0.6 
r201 812 815 0.0226738 
r202 960 811 0.194286 
r203 809 811 0.6 
r204 809 812 0.0233155 
r205 956 808 0.3175 
r206 806 808 0.6 
r207 806 809 0.0203209 
r208 953 805 0.96 
r209 803 805 0.666667 
r210 803 806 0.0213904 
r211 802 1100 0.02 
r212 802 803 0.0715508 
r213 801 870 0.00180503 
r214 801 837 0.040107 
r215 800 841 0.0450432 
r216 1106 800 1.29371 
r217 794 863 0.02 
r218 794 795 0.746316 
r219 792 1057 0.230275 
r220 790 1052 0.210275 
r221 786 951 0.109474 
r222 784 948 0.229041 
r223 784 785 0.0863581 
r224 782 944 0.209132 
r225 782 783 0.0863581 
r226 792 780 0.0861375 
r227 780 781 0.132033 
r228 790 779 0.0861375 
r229 775 777 0.201086 
r230 775 774 0.0421961 
r231 1061 774 1.01412 
r232 786 770 0.0420103 
r233 769 770 3.01467 
r234 767 769 0.0446983 
r235 767 768 0.276 
r236 766 768 0.0447588 
r237 733 946 0.128 
r238 732 781 0.0473573 
r239 732 946 0.126 
r240 699 733 0.0473573 
r241 785 699 0.132033 
r242 695 946 0.126 
r243 694 953 1.1475 
r244 692 946 0.128 
r245 691 692 0.0473573 
r246 691 783 0.250407 
r247 777 659 5.56667 
r248 848 471 6 
r249 827 469 0.75 
r250 845 467 3 
r251 465 486 0.0494737 
r252 795 465 2 
r253 462 469 0.437895 
r254 462 463 0.0407126 
r255 694 461 0.0338756 
r256 447 471 0.0413535 
r257 447 448 1.14783 
r258 443 444 0.221176 
r259 439 443 0.0446983 
r260 439 440 0.608235 
r261 437 440 0.0446983 
r262 437 463 2.01647 
r263 418 461 0.00880368 
r264 418 419 0.1375 
r265 412 766 0.6025 
r266 412 467 0.0265396 
r267 448 358 5.56667 
r268 444 354 5.56667 
r269 348 486 5.54444 
r270 321 877 0.0419737 
r271 873 321 0.0413851 
r272 900 321 0.00128205 
r273 890 318 2.21804 
r274 318 1104 0.6 
r275 1039 282 0.00313778 
r276 1089 282 0.0652174 
r277 1054 271 0.0141284 
r278 271 1056 0.0652174 
r279 1022 232 0.00313778 
r280 1084 232 0.0652174 
r281 222 1039 0.00313778 
r282 1086 222 0.0652174 
r283 1005 182 0.00313778 
r284 1079 182 0.0652174 
r285 172 1022 0.00313778 
r286 1081 172 0.0652174 
r287 988 132 0.00313778 
r288 1074 132 0.0652174 
r289 122 1005 0.00313778 
r290 1076 122 0.0652174 
r291 967 82 0.00313778 
r292 1069 82 0.0652174 
r293 72 988 0.00313778 
r294 1071 72 0.0652174 
r295 32 948 0.0126027 
r296 946 32 0.0131507 
r297 1064 32 0.0652174 
r298 22 967 0.00313778 
r299 1066 22 0.0652174 
r300 10 779 0.250407 
r301 10 695 0.0473573 
.ends

.subckt PM_PC3B03U%U15_ngate 70 77 84 91 99 107 143 145 193 199
c0 245 0 16.6045f
c1 237 0 0.535284f
c2 236 0 0.794406f
c3 233 0 0.0955656f
c4 232 0 5.29594f
c5 230 0 0.197575f
c6 228 0 6.57272f
c7 225 0 0.103554f
c8 211 0 2.99129f
c9 201 0 0.605798f
c10 200 0 0.168817f
c11 199 0 3.04886f
c12 193 0 3.04886f
c13 153 0 0.431532f
c14 145 0 0.595965f
c15 143 0 0.831149f
c16 140 0 0.149707f
c17 137 0 0.145618f
c18 128 0 0.138124f
c19 125 0 1.47657f
c20 124 0 0.143227f
c21 121 0 0.813533f
c22 116 0 3.13564f
c23 114 0 0.0428228f
c24 113 0 0.0461791f
c25 112 0 0.0261329f
c26 111 0 0.0261329f
c27 107 0 1.12082f
c28 104 0 0.128887f
c29 103 0 1.64588f
c30 99 0 1.54001f
c31 96 0 0.0767532f
c32 95 0 0.252995f
c33 91 0 1.35208f
c34 88 0 0.352496f
c35 84 0 1.42004f
c36 81 0 0.249179f
c37 77 0 1.459f
c38 75 0 0.0502871f
c39 74 0 0.28959f
c40 70 0 1.43018f
c41 26 0 0.451158f
r42 244 245 0.397333 
r43 243 244 5.55867 
r44 240 243 1.948 
r45 234 236 0.0733484 
r46 234 252 1.5 
r47 232 236 0.0813046 
r48 232 233 5.576 
r49 240 230 6 
r50 228 230 6 
r51 227 233 0.0447005 
r52 227 228 6.41185 
r53 223 225 0.0755556 
r54 216 223 0.02 
r55 237 208 0.00142683 
r56 205 237 0.0277856 
r57 201 237 5.05882 
r58 200 237 5.05882 
r59 195 201 3.88985 
r60 195 199 183.96 
r61 190 200 3.88985 
r62 190 193 183.96 
r63 140 145 60 
r64 140 160 3.77986 
r65 137 143 85 
r66 137 153 3.53757 
r67 128 166 0.0370021 
r68 225 128 6 
r69 125 221 2.59143 
r70 125 245 6 
r71 221 124 6 
r72 216 121 1.53143 
r73 121 244 6 
r74 153 120 0.3325 
r75 211 120 6 
r76 117 214 2.2825 
r77 211 117 1.32 
r78 117 243 6 
r79 116 160 3.7825 
r80 214 116 6 
r81 113 124 0.0613333 
r82 106 107 1.2375 
r83 105 114 0.0310989 
r84 104 106 0.044713 
r85 104 105 0.152258 
r86 103 114 0.0112231 
r87 102 113 0.0447675 
r88 102 103 3.52 
r89 166 99 1.6275 
r90 97 99 1.28 
r91 95 114 0.0310989 
r92 95 96 0.301935 
r93 90 96 0.044713 
r94 90 91 1.2375 
r95 89 112 0.0338756 
r96 88 97 0.0446983 
r97 88 89 0.51 
r98 83 112 0.00880368 
r99 83 84 1.28 