* File: pvdc.dist.sp.pex
* Created: Sun Jul  4 13:17:59 2010
* Program "Calibre xRC"
* Version "v2008.4_19.14"
* Nominal Temperature: 27C
* Circuit Temperature: 27C
* 
.subckt PM_PVDC%U36_U29_c2 78 83 168 173 258 263 282 332 337 342 347 352 358
+ 425
c0 507 0 0.784623f
c1 503 0 0.766676f
c2 499 0 0.781626f
c3 491 0 0.786668f
c4 487 0 0.766676f
c5 470 0 0.534311f
c6 466 0 0.654131f
c7 457 0 0.644842f
c8 450 0 0.771356f
c9 448 0 8.65817f
c10 446 0 6.09022f
c11 428 0 9.53778f
c12 427 0 0.753635f
c13 425 0 0.322877f
c14 423 0 1.79448f
c15 420 0 1.53235f
c16 417 0 0.53323f
c17 416 0 0.293546f
c18 415 0 1.52567f
c19 411 0 0.0573827f
c20 410 0 0.292625f
c21 409 0 1.52597f
c22 405 0 0.533283f
c23 404 0 0.29362f
c24 403 0 1.52562f
c25 399 0 0.0573827f
c26 398 0 0.292625f
c27 397 0 1.52589f
c28 392 0 0.292635f
c29 391 0 1.53362f
c30 383 0 0.0571819f
c31 381 0 0.0571819f
c32 379 0 0.0572488f
c33 377 0 0.0571819f
c34 375 0 0.0571819f
c35 373 0 0.237716f
c36 371 0 5.14694f
c37 370 0 0.0489987f
c38 364 0 0.114403f
c39 363 0 0.591888f
c40 362 0 0.114963f
c41 361 0 0.591888f
c42 360 0 0.114963f
c43 359 0 0.534269f
c44 358 0 2.82722f
c45 352 0 2.77427f
c46 347 0 2.77427f
c47 342 0 2.77427f
c48 337 0 2.77427f
c49 332 0 2.82572f
c50 282 0 2.584f
c51 263 0 2.77427f
c52 262 0 0.114963f
c53 258 0 2.77427f
c54 257 0 0.114963f
c55 173 0 2.77427f
c56 172 0 0.114963f
c57 168 0 2.77427f
c58 167 0 0.114963f
c59 83 0 2.77543f
c60 82 0 0.114963f
c61 78 0 2.77427f
c62 77 0 0.114963f
r63 493 519 1.5 
r64 491 517 0.217248 
r65 489 491 3 
r66 485 487 3 
r67 480 507 3 
r68 477 503 3 
r69 472 499 3 
r70 470 472 0.0555181 
r71 455 457 0.0942857 
r72 451 453 1.5 
r73 519 450 0.171385 
r74 448 450 1.5 
r75 448 451 0.827317 
r76 447 457 0.02 
r77 447 448 1.81626 
r78 446 455 0.02 
r79 445 446 1.51788 
r80 443 517 3 
r81 487 441 0.226603 
r82 439 441 3 
r83 439 443 0.662105 
r84 507 438 0.218249 
r85 436 438 3 
r86 436 439 0.663158 
r87 503 435 0.226603 
r88 433 435 3 
r89 433 436 0.661754 
r90 499 431 0.226603 
r91 429 431 3 
r92 429 433 0.662456 
r93 428 445 0.0450103 
r94 428 443 0.321404 
r95 427 453 0.0810627 
r96 423 425 3 
r97 422 427 0.0447229 
r98 422 423 0.536129 
r99 466 420 0.0385542 
r100 417 489 0.0555181 
r101 416 489 0.0501205 
r102 416 417 0.00144578 
r103 417 415 0.0385542 
r104 411 485 0.00337349 
r105 410 485 0.0501205 
r106 410 411 0.00144578 
r107 411 409 0.0385542 
r108 405 480 0.0550361 
r109 404 480 0.0506024 
r110 404 405 0.00144578 
r111 405 403 0.0385542 
r112 399 477 0.00337349 
r113 398 477 0.0501205 
r114 398 399 0.00144578 
r115 399 397 0.0385542 
r116 392 472 0.0501205 
r117 392 470 0.00144578 
r118 470 391 0.0385542 
r119 417 383 0.0385542 
r120 420 383 0.679024 
r121 411 381 0.0385542 
r122 415 381 0.679024 
r123 405 379 0.0385542 
r124 409 379 0.679024 
r125 399 377 0.0385542 
r126 403 377 0.679024 
r127 470 375 0.0385542 
r128 397 375 0.679024 
r129 373 388 0.0957292 
r130 391 373 0.679024 
r131 371 493 0.118347 
r132 370 493 0.562204 
r133 364 466 2.14706 
r134 363 411 5.05882 
r135 362 411 5.05882 
r136 361 399 5.05882 
r137 360 399 5.05882 
r138 359 388 2.14706 
r139 354 364 4.2601 
r140 354 358 229.95 
r141 349 363 4.2601 
r142 349 352 229.95 
r143 344 362 4.2601 
r144 344 347 229.95 
r145 339 361 4.2601 
r146 339 342 229.95 
r147 334 360 4.2601 
r148 334 337 229.95 
r149 329 359 4.2601 
r150 329 332 229.95 
r151 371 287 0.0954001 
r152 287 282 1.9113 
r153 281 370 0.0954001 
r154 281 282 1.9113 
r155 268 417 5.05882 
r156 267 417 5.05882 
r157 262 268 4.2601 
r158 262 263 229.95 
r159 257 267 4.2601 
r160 257 258 229.95 
r161 178 405 5.05882 
r162 177 405 5.05882 
r163 172 178 4.2601 
r164 172 173 229.95 
r165 167 177 4.2601 
r166 167 168 229.95 
r167 88 470 5.05882 
r168 87 470 5.05882 
r169 82 88 4.2601 
r170 82 83 229.95 
r171 77 87 4.2601 
r172 77 78 229.95 
.ends

.subckt PM_PVDC%VDDC 25 54 95 124 165 194 248 902 937 961 970 976 982 988 994
+ 1000 1011 1026 1033 1049
c0 1045 0 25.7129f
c1 1034 0 84.3401f
c2 1033 0 64.3473f
c3 1030 0 159.215f
c4 1019 0 125.398f
c5 1011 0 12.9576f
c6 1000 0 7.94482f
c7 994 0 12.9875f
c8 988 0 12.9875f
c9 982 0 12.9897f
c10 976 0 12.9633f
c11 970 0 8.05054f
c12 961 0 0.00230809f
c13 952 0 191.617f
c14 949 0 10.625f
c15 947 0 4.29177f
c16 944 0 12.0462f
c17 941 0 4.81963f
c18 939 0 2.54111f
c19 929 0 12.846f
c20 926 0 1.66686f
c21 923 0 1.54325f
c22 912 0 15.3265f
c23 903 0 0.727116f
c24 902 0 0.300857f
c25 900 0 8.57151f
c26 899 0 0.521918f
c27 897 0 17.6657f
c28 896 0 2.43949f
c29 895 0 4.78914f
c30 894 0 0.113871f
c31 786 0 6.9089f
c32 767 0 0.11068f
c33 766 0 2.07262f
c34 735 0 6.29399f
c35 248 0 2.84363f
c36 216 0 7.52869f
c37 194 0 3.30943f
c38 177 0 6.95421f
c39 165 0 3.30929f
c40 148 0 6.95421f
c41 124 0 3.30943f
c42 107 0 6.95421f
c43 95 0 3.30943f
c44 78 0 6.95421f
c45 54 0 3.30932f
c46 37 0 6.95421f
c47 25 0 3.30943f
c48 8 0 6.95421f
r49 1045 1046 0.118407 
r50 1044 1045 0.118407 
r51 1043 1044 0.0549389 
r52 1042 1043 0.0634682 
r53 1041 1042 0.118407 
r54 1040 1041 0.118407 
r55 1038 1039 0.00080402 
r56 1037 1038 0.0030269 
r57 1033 1034 0.0124825 
r58 1031 1033 0.000593149 
r59 1030 1031 0.0669731 
r60 1025 1026 0.0043974 
r61 1024 1025 0.00518037 
r62 1023 1024 0.0171733 
r63 1022 1023 0.0171733 
r64 1021 1022 0.0171733 
r65 1020 1021 0.0171733 
r66 1019 1020 0.0171733 
r67 1039 1019 0.016369 
r68 1008 1011 0.00335878 
r69 1008 1021 0.115385 
r70 997 1000 0.0369231 
r71 997 1024 0.113208 
r72 991 994 0.0256489 
r73 991 1023 0.113208 
r74 985 988 0.0256489 
r75 985 1022 0.113208 
r76 979 982 0.0256489 
r77 979 1020 0.113208 
r78 973 976 0.0256489 
r79 973 1019 0.115385 
r80 967 970 0.0369231 
r81 967 1038 0.113208 
r82 959 961 0.033 
r83 959 1037 0.12 
r84 949 952 0.0098641 
r85 949 1043 0.0181818 
r86 963 947 0.12 
r87 952 946 0.0687069 
r88 946 947 0.12 
r89 944 1037 0.0075436 
r90 943 952 0.146839 
r91 943 944 0.0288462 
r92 1049 941 0.14124 
r93 939 941 0.166667 
r94 937 939 0.318253 
r95 935 937 0.0167686 
r96 935 1025 0.113208 
r97 932 1049 0.157984 
r98 930 932 0.166667 
r99 930 935 0.339214 
r100 952 929 4.52257 
r101 924 926 1.5 
r102 923 929 0.0448567 
r103 923 924 0.278347 
r104 919 920 0.00752787 
r105 918 919 0.021023 
r106 916 918 0.000537705 
r107 916 1030 0.00162999 
r108 914 916 0.000537705 
r109 912 914 0.0285508 
r110 903 926 0.590826 
r111 901 903 0.0377689 
r112 901 902 3 
r113 900 963 1.44876 
r114 898 900 0.044725 
r115 898 899 0.178741 
r116 896 899 0.0452565 
r117 896 897 0.263678 
r118 895 961 2.191 
r119 894 959 2.148 
r120 961 813 0.159252 
r121 786 961 0.159252 
r122 785 813 0.19514 
r123 895 784 0.045921 
r124 784 786 0.19514 
r125 767 961 2.11181 
r126 766 785 0.0456322 
r127 766 961 2.10217 
r128 961 762 0.159252 
r129 735 961 0.159252 
r130 734 767 0.0456322 
r131 734 762 0.19514 
r132 733 894 0.045921 
r133 733 735 0.19514 
r134 897 248 3.42631 
r135 227 230 0.0022831 
r136 920 227 0.0375475 
r137 227 1031 0.00547945 
r138 918 226 0.00210084 
r139 224 226 0.000537705 
r140 914 224 0.00210084 
r141 226 222 0.0105115 
r142 919 222 0.00712251 
r143 218 230 0.0187738 
r144 222 218 0.00376393 
r145 920 218 0.00712251 
r146 216 224 0.0142754 
r147 912 216 0.00356125 
r148 1034 201 0.345778 
r149 200 1045 0.0220132 
r150 200 201 0.319822 
r151 194 181 0.00249413 
r152 201 181 0.0425532 
r153 177 194 0.00249413 
r154 201 177 0.0425532 
r155 1034 172 0.345778 
r156 171 1046 0.0220132 
r157 171 172 0.319822 
r158 165 152 0.00249413 
r159 172 152 0.0425532 
r160 148 165 0.00249413 
r161 172 148 0.0425532 
r162 1034 131 0.345778 
r163 130 1042 0.0220132 
r164 130 131 0.319822 
r165 124 111 0.00249413 
r166 131 111 0.0425532 
r167 107 124 0.00249413 
r168 131 107 0.0425532 
r169 1034 102 0.345778 
r170 101 1044 0.0220132 
r171 101 102 0.319822 
r172 95 82 0.00249413 
r173 102 82 0.0425532 
r174 78 95 0.00249413 
r175 102 78 0.0425532 
r176 1034 61 0.345778 
r177 60 1040 0.0220132 
r178 60 61 0.319822 
r179 54 41 0.00249413 
r180 61 41 0.0425532 
r181 37 54 0.00249413 
r182 61 37 0.0425532 
r183 1034 32 0.345778 
r184 31 1041 0.0220132 
r185 31 32 0.319822 
r186 25 12 0.00249413 
r187 32 12 0.0425532 
r188 8 25 0.00249413 
r189 32 8 0.0425532 
.ends

.subckt PM_PVDC%noxref_3 8 15
c0 14 0 0.710808f
c1 13 0 0.329275f
c2 8 0 0.303059f
r3 14 16 0.02 
r4 13 15 0.0300645 
r5 13 14 0.232258 
r6 16 8 0.0278652 
.ends

.subckt PM_PVDC%U35_U22$11_gate 413 415 417 419 421 423 425 427 429 431 433 436
+ 467
c0 522 0 0.351289f
c1 521 0 0.351289f
c2 520 0 0.351289f
c3 519 0 0.351289f
c4 518 0 0.351289f
c5 517 0 0.332504f
c6 516 0 0.351678f
c7 515 0 0.351289f
c8 514 0 0.351289f
c9 513 0 0.351289f
c10 512 0 0.351289f
c11 510 0 7.02268f
c12 506 0 0.351256f
c13 505 0 0.35479f
c14 504 0 0.35479f
c15 503 0 0.35479f
c16 502 0 0.35479f
c17 501 0 0.335276f
c18 500 0 0.35518f
c19 499 0 0.35479f
c20 498 0 0.35479f
c21 497 0 0.355731f
c22 496 0 0.355731f
c23 494 0 7.68652f
c24 483 0 0.320741f
c25 481 0 1.39034f
c26 475 0 0.3773f
c27 473 0 1.34603f
c28 470 0 1.68076f
c29 467 0 0.257955f
c30 463 0 8.28822f
c31 412 0 4.08967f
c32 400 0 0.139885f
c33 308 0 0.351289f
c34 305 0 0.35479f
c35 277 0 3.8463f
c36 275 0 0.107369f
c37 241 0 3.8463f
c38 239 0 0.107369f
c39 223 0 3.8463f
c40 221 0 0.107369f
c41 187 0 3.8463f
c42 185 0 0.107369f
c43 169 0 3.84838f
c44 167 0 0.107877f
c45 133 0 3.84061f
c46 131 0 0.107369f
c47 115 0 3.84568f
c48 113 0 0.107369f
c49 79 0 3.8463f
c50 77 0 0.107369f
c51 61 0 3.8463f
c52 59 0 0.107369f
c53 25 0 3.84672f
c54 23 0 0.107369f
c55 7 0 4.07573f
c56 5 0 0.11906f
r57 521 522 0.343512 
r58 520 521 0.36478 
r59 519 520 0.343512 
r60 518 519 0.36478 
r61 517 518 0.343512 
r62 516 517 0.36478 
r63 515 516 0.343512 
r64 514 515 0.36478 
r65 513 514 0.343512 
r66 512 513 0.36478 
r67 510 512 0.0308293 
r68 506 507 0.18878 
r69 505 506 0.277073 
r70 504 505 0.43122 
r71 503 504 0.277073 
r72 502 503 0.43122 
r73 501 502 0.277073 
r74 500 501 0.43122 
r75 499 500 0.277073 
r76 498 499 0.43122 
r77 497 498 0.277073 
r78 496 497 0.43122 
r79 494 496 0.00390244 
r80 486 510 3 
r81 483 531 0.00106667 
r82 481 483 3 
r83 481 486 0.811515 
r84 478 494 3 
r85 475 527 0.00592593 
r86 473 475 3 
r87 473 478 0.768485 
r88 470 507 3 
r89 465 467 3 
r90 465 470 0.349037 
r91 464 527 0.02 
r92 463 531 0.02 
r93 463 464 4.55722 
r94 412 436 304.95 
r95 400 436 304.95 
r96 522 308 0.36478 
r97 507 305 0.242439 
r98 296 308 2.44118 
r99 412 296 4.2601 
r100 294 305 2.44118 
r101 400 294 4.2601 
r102 278 522 2.44118 
r103 277 433 304.95 
r104 277 278 4.2601 
r105 276 506 2.44118 
r106 275 433 304.95 
r107 275 276 4.2601 
r108 242 521 2.44118 
r109 241 431 304.95 
r110 241 242 4.2601 
r111 240 505 2.44118 
r112 239 431 304.95 
r113 239 240 4.2601 
r114 224 520 2.44118 
r115 223 429 304.95 
r116 223 224 4.2601 
r117 222 504 2.44118 
r118 221 429 304.95 
r119 221 222 4.2601 
r120 188 519 2.44118 
r121 187 427 304.95 
r122 187 188 4.2601 
r123 186 503 2.44118 
r124 185 427 304.95 
r125 185 186 4.2601 
r126 170 518 2.44118 
r127 169 425 304.95 
r128 169 170 4.2601 
r129 168 502 2.44118 
r130 167 425 304.95 
r131 167 168 4.2601 
r132 134 517 2.44118 
r133 133 423 304.95 
r134 133 134 4.2601 
r135 132 501 2.44118 
r136 131 423 304.95 
r137 131 132 4.2601 
r138 116 516 2.44118 
r139 115 421 304.95 
r140 115 116 4.2601 
r141 114 500 2.44118 
r142 113 421 304.95 
r143 113 114 4.2601 
r144 80 515 2.44118 
r145 79 419 304.95 
r146 79 80 4.2601 
r147 78 499 2.44118 
r148 77 419 304.95 
r149 77 78 4.2601 
r150 62 514 2.44118 
r151 61 417 304.95 
r152 61 62 4.2601 
r153 60 498 2.44118 
r154 59 417 304.95 
r155 59 60 4.2601 
r156 26 513 2.44118 
r157 25 415 304.95 
r158 25 26 4.2601 
r159 24 497 2.44118 
r160 23 415 304.95 
r161 23 24 4.2601 
r162 8 512 2.44118 
r163 7 413 304.95 
r164 7 8 4.2601 
r165 6 496 2.44118 
r166 5 413 304.95 
r167 5 6 4.2601 
.ends

.subckt PM_PVDC%noxref_5 8 15
c0 14 0 0.651319f
c1 13 0 0.291795f
c2 8 0 0.276132f
r3 14 16 0.02 
r4 13 15 0.0300645 
r5 13 14 0.232258 
r6 16 8 0.0278652 
.ends

.subckt PM_PVDC%VSS 1167 1170 1173 1176 1179 1182 1185 1188 1251 1258 1264 1268
+ 1300 1319 1324 1329 1334 1339 1344 1350 1367 1377 1389
c0 1389 0 41.4355f
c1 1375 0 5.85306f
c2 1367 0 1.24866f
c3 1356 0 11.7295f
c4 1350 0 0.145467f
c5 1348 0 1.66286f
c6 1345 0 12.0374f
c7 1344 0 1.14196f
c8 1340 0 12.0231f
c9 1339 0 1.14088f
c10 1335 0 12.0257f
c11 1334 0 1.14088f
c12 1330 0 12.0722f
c13 1329 0 1.16337f
c14 1325 0 12.0231f
c15 1324 0 1.14088f
c16 1320 0 12.013f
c17 1319 0 1.14134f
c18 1296 0 7.15012f
c19 1294 0 0.784661f
c20 1293 0 0.332953f
c21 1290 0 10.4489f
c22 1282 0 14.8995f
c23 1279 0 3.42307f
c24 1273 0 14.8473f
c25 1264 0 89.9408f
c26 1256 0 0.383817f
c27 1254 0 0.430784f
c28 1251 0 0.219758f
c29 1249 0 0.509824f
c30 1248 0 0.180669f
c31 1232 0 10.2663f
c32 1228 0 1.98475f
c33 1226 0 0.371442f
c34 1225 0 0.996213f
c35 1204 0 11.2989f
c36 1198 0 7.06341f
c37 1188 0 2.03146f
c38 1185 0 1.81538f
c39 1182 0 1.85232f
c40 1179 0 1.85138f
c41 1176 0 1.81148f
c42 1173 0 1.81148f
c43 1170 0 1.81148f
c44 1167 0 2.02078f
c45 1164 0 1.85736f
c46 1162 0 1.85618f
c47 1160 0 1.85618f
c48 1158 0 1.85618f
c49 1156 0 1.88796f
c50 1154 0 1.84828f
c51 1152 0 1.87209f
c52 1150 0 1.86689f
c53 1149 0 1.79971f
c54 1146 0 7.69493f
c55 1015 0 0.0538339f
c56 1014 0 0.0695549f
c57 1013 0 0.0538339f
c58 1012 0 0.0825354f
c59 984 0 5.3169f
c60 980 0 0.665399f
c61 978 0 0.928065f
c62 950 0 5.42775f
c63 944 0 5.99535f
c64 914 0 6.3859f
c65 911 0 0.102637f
c66 910 0 0.562762f
c67 909 0 0.122218f
c68 908 0 0.86623f
c69 907 0 6.2765f
c70 387 0 0.395258f
c71 385 0 0.436616f
c72 383 0 9.06202f
c73 382 0 0.262067f
c74 381 0 0.327068f
c75 380 0 0.250479f
c76 379 0 0.577788f
c77 372 0 0.551439f
c78 240 0 0.236614f
c79 239 0 4.8224f
c80 238 0 2.00902f
c81 215 0 1.8416f
c82 211 0 1.83862f
r83 1386 1387 0.0660419 
r84 1385 1386 0.0319043 
r85 1384 1385 0.0282353 
r86 1383 1384 0.228674 
r87 1382 1383 0.0412363 
r88 1377 1380 0.00303091 
r89 1374 1375 0.0551111 
r90 1373 1374 0.0497778 
r91 1372 1373 0.0497778 
r92 1371 1372 0.0497778 
r93 1369 1371 0.0131556 
r94 1369 1383 0.0413793 
r95 1367 1369 0.00266667 
r96 1366 1367 0.0339556 
r97 1365 1366 0.0497778 
r98 1364 1365 0.0497778 
r99 1363 1364 0.0497778 
r100 1361 1363 0.0551111 
r101 1359 1387 0.142857 
r102 1356 1359 0.113659 
r103 1348 1350 0.30408 
r104 1348 1384 0.0416667 
r105 1344 1345 0.432326 
r106 1339 1340 0.432326 
r107 1334 1335 0.432326 
r108 1329 1330 0.432326 
r109 1324 1325 0.432326 
r110 1319 1320 0.432326 
r111 1316 1319 0.433488 
r112 1316 1394 0.6 
r113 1312 1314 3.64488 
r114 1309 1380 0.142857 
r115 1306 1309 0.109268 
r116 1300 1302 0.1891 
r117 1294 1296 1.5 
r118 1293 1294 0.214135 
r119 1290 1386 1 
r120 1288 1293 0.0447119 
r121 1288 1290 3.51566 
r122 1285 1286 1.4503 
r123 1282 1285 0.813861 
r124 1282 1385 0.3 
r125 1312 1279 2 
r126 1279 1394 0.247273 
r127 1277 1279 2 
r128 1276 1277 1.37301 
r129 1273 1276 0.830622 
r130 1273 1382 0.3 
r131 1268 1270 0.1891 
r132 1262 1264 0.000506675 
r133 1261 1262 0.0834503 
r134 1258 1261 0.000704656 
r135 1257 1296 3.2697 
r136 1253 1394 0.058355 
r137 1253 1254 0.0406849 
r138 1249 1251 3 
r139 1248 1257 0.0448535 
r140 1248 1249 0.141429 
r141 1244 1345 0.6 
r142 1241 1340 0.6 
r143 1241 1244 0.279231 
r144 1238 1335 0.6 
r145 1238 1241 0.279231 
r146 1235 1330 0.6 
r147 1235 1238 0.279231 
r148 1232 1325 0.6 
r149 1232 1235 0.279231 
r150 1256 1232 0.0942308 
r151 1228 1320 0.6 
r152 1227 1256 0.04 
r153 1227 1228 0.140657 
r154 1226 1228 0.122254 
r155 1226 1225 0.04 
r156 1218 1344 0.433488 
r157 1216 1218 0.6 
r158 1215 1339 0.433488 
r159 1213 1215 0.6 
r160 1213 1216 0.273962 
r161 1212 1334 0.433488 
r162 1210 1212 0.6 
r163 1210 1213 0.273962 
r164 1209 1329 0.433488 
r165 1207 1209 0.6 
r166 1207 1210 0.273962 
r167 1206 1324 0.433488 
r168 1204 1206 0.6 
r169 1204 1207 0.273962 
r170 1254 1204 0.166792 
r171 1198 1199 0.089172 
r172 1197 1198 0.089172 
r173 1196 1197 0.089172 
r174 1195 1348 0.0488 
r175 1194 1196 0.089172 
r176 1194 1195 0.0204618 
r177 1193 1194 0.089172 
r178 1192 1193 0.089172 
r179 1191 1192 0.089172 
r180 1190 1191 0.089172 
r181 1199 1188 0.35928 
r182 1198 1185 0.35928 
r183 1181 1197 0.0204618 
r184 1181 1182 0.35288 
r185 1178 1196 0.0204618 
r186 1178 1179 0.35288 
r187 1193 1176 0.35928 
r188 1192 1173 0.35928 
r189 1191 1170 0.35928 
r190 1190 1167 0.35928 
r191 1164 1374 0.02 
r192 1164 1367 0.30632 
r193 1162 1373 0.02 
r194 1162 1367 0.30632 
r195 1160 1372 0.02 
r196 1160 1367 0.30632 
r197 1158 1371 0.02 
r198 1158 1367 0.30632 
r199 1156 1366 0.02 
r200 1156 1367 0.30632 
r201 1154 1365 0.02 
r202 1154 1367 0.30632 
r203 1152 1364 0.02 
r204 1152 1367 0.30632 
r205 1150 1363 0.02 
r206 1150 1367 0.30632 
r207 1149 1361 0.02 
r208 1148 1359 0.349756 
r209 1147 1356 0.02 
r210 1146 1314 0.546341 
r211 1145 1312 0.522927 
r212 1144 1306 0.02 
r213 1143 1309 0.354146 
r214 1146 1014 0.0420172 
r215 1145 1012 0.0420172 
r216 983 1011 0.347333 
r217 982 984 0.345333 
r218 981 1015 0.0412274 
r219 980 983 0.0465329 
r220 980 981 0.578095 
r221 979 1014 0.0420172 
r222 978 982 0.0467869 
r223 978 979 0.592195 
r224 949 1015 0.00319614 
r225 949 977 0.349159 
r226 948 1014 0.00265108 
r227 948 950 0.346916 
r228 945 1013 0.0412274 
r229 944 1015 0.0412274 
r230 913 1013 0.00319614 
r231 913 941 0.346916 
r232 912 1012 0.00265108 
r233 912 914 0.344673 
r234 910 1013 0.0412274 
r235 910 911 0.578095 
r236 908 1012 0.0420172 
r237 908 909 0.592195 
r238 907 911 0.0465329 
r239 906 909 0.0467869 
r240 906 907 3.32467 
r241 392 394 1.676 
r242 389 1225 0.106276 
r243 389 1314 2 
r244 1286 389 2 
r245 394 387 1.5 
r246 1285 387 1.5 
r247 392 385 1 
r248 1276 385 1 
r249 383 394 0.459111 
r250 1148 382 0.0420897 
r251 381 392 0.462222 
r252 1143 380 0.0420897 
r253 379 383 0.0474127 
r254 382 379 0.120863 
r255 914 375 0.161495 
r256 375 941 0.161495 
r257 950 375 0.159252 
r258 375 977 0.159252 
r259 984 375 0.106 
r260 375 1011 0.106 
r261 944 375 4.34857 
r262 945 375 0.253333 
r263 1147 375 2.94 
r264 1144 375 2.904 
r265 372 381 0.0474127 
r266 380 372 0.120863 
r267 249 1149 0.5605 
r268 239 249 0.0446983 
r269 239 240 1.21 
r270 238 1375 0.02 
r271 237 240 0.0446983 
r272 237 238 0.5605 
r273 215 1300 0.0129 
r274 215 1262 0.131579 
r275 214 1389 0.00318245 
r276 1387 214 0.0129212 
r277 1302 214 0.428571 
r278 211 1268 0.0249 
r279 211 1261 0.131579 
r280 210 1382 0.101926 
r281 1380 210 0.00128415 
r282 1270 210 0.428571 
.ends

.subckt PM_PVDC%VSSO 167 330 493 914 917 920 923 926 929 932 935 976 980 983
+ 989 993 1024 1028 1041 1047 1051 1054 1062 1071 1081 1090 1137 1146
c0 1146 0 37.3347f
c1 1132 0 7.22407f
c2 1126 0 7.22378f
c3 1120 0 7.22404f
c4 1114 0 7.22378f
c5 1108 0 7.21147f
c6 1098 0 7.15965f
c7 1090 0 1.24866f
c8 1054 0 1.92885f
c9 1047 0 14.5262f
c10 1039 0 0.377819f
c11 1033 0 6.51187f
c12 1022 0 1.04977f
c13 1021 0 0.15584f
c14 1020 0 2.49662f
c15 1017 0 5.19705f
c16 1014 0 5.6428f
c17 998 0 19.2724f
c18 997 0 52.2216f
c19 991 0 1.10349f
c20 989 0 30.3807f
c21 980 0 9.49654f
c22 971 0 0.40025f
c23 970 0 0.718873f
c24 968 0 6.85849f
c25 959 0 5.00502f
c26 957 0 0.397249f
c27 956 0 0.720474f
c28 955 0 0.237884f
c29 954 0 5.00186f
c30 951 0 1.78908f
c31 949 0 1.80425f
c32 947 0 1.78238f
c33 945 0 1.82148f
c34 943 0 1.78702f
c35 941 0 1.78525f
c36 939 0 1.78525f
c37 937 0 1.78644f
c38 935 0 1.94986f
c39 932 0 1.93006f
c40 929 0 1.93006f
c41 926 0 1.93006f
c42 923 0 1.98003f
c43 920 0 1.98038f
c44 917 0 1.94473f
c45 914 0 1.96485f
c46 883 0 0.121254f
c47 882 0 9.90644f
c48 852 0 0.242203f
c49 849 0 2.05344f
c50 848 0 1.89141f
c51 846 0 7.03489f
c52 587 0 0.295655f
c53 586 0 5.70599f
c54 510 0 5.83266f
c55 408 0 13.9074f
c56 358 0 13.9075f
c57 245 0 13.9074f
c58 195 0 13.9075f
c59 32 0 13.9076f
c60 10 0 0.146306f
c61 4 0 0.146306f
r62 1143 1144 0.169626 
r63 1142 1143 0.310588 
r64 1141 1142 0.169519 
r65 1128 1130 0.00295856 
r66 1122 1124 0.00296109 
r67 1116 1118 0.00295856 
r68 1110 1112 0.00296109 
r69 1104 1106 0.00295856 
r70 1097 1098 0.0551111 
r71 1096 1097 0.0497778 
r72 1095 1096 0.0497778 
r73 1094 1095 0.0497778 
r74 1092 1094 0.0311111 
r75 1092 1143 0.0413793 
r76 1090 1092 0.00284444 
r77 1089 1090 0.0158222 
r78 1088 1089 0.0497778 
r79 1087 1088 0.0497778 
r80 1086 1087 0.0497778 
r81 1084 1086 0.0551111 
r82 1078 1081 0.0126606 
r83 1071 1124 0.130435 
r84 1062 1112 0.130435 
r85 1057 1142 0.04 
r86 1054 1057 0.29128 
r87 1047 1078 0.013211 
r88 1037 1039 0.0475168 
r89 1036 1108 0.00156912 
r90 1106 1036 0.0013945 
r91 1034 1036 0.0253165 
r92 1100 1033 0.00296109 
r93 1031 1033 0.041958 
r94 1031 1034 0.0209309 
r95 1030 1031 0.00812791 
r96 1028 1030 0.00459197 
r97 1022 1024 0.4449 
r98 1021 1039 0.02 
r99 1020 1041 0.113272 
r100 1020 1021 0.0641176 
r101 1017 1144 0.3 
r102 1015 1037 0.02 
r103 1015 1017 1.45171 
r104 1012 1014 0.041958 
r105 1011 1132 0.00156912 
r106 1130 1011 0.0013945 
r107 1009 1011 0.0253165 
r108 1009 1012 0.020967 
r109 1008 1126 0.00156912 
r110 1124 1008 0.00139196 
r111 1006 1008 0.0253165 
r112 1006 1009 0.0222642 
r113 1005 1120 0.00156912 
r114 1118 1005 0.0013945 
r115 1003 1005 0.0253165 
r116 1003 1006 0.0222642 
r117 1002 1003 0.00169811 
r118 1001 1114 0.00156912 
r119 1112 1001 0.00139196 
r120 999 1001 0.0253165 
r121 999 1002 0.020566 
r122 998 1034 0.00985849 
r123 998 999 0.0124057 
r124 997 1041 0.0340505 
r125 997 1012 0.00556604 
r126 991 993 0.4449 
r127 987 989 0.00199444 
r128 986 987 0.35605 
r129 983 986 0.00306111 
r130 972 1081 0.230275 
r131 970 1047 0.211193 
r132 970 971 0.0861375 
r133 968 969 0.089172 
r134 967 968 0.089172 
r135 966 967 0.089172 
r136 965 1057 0.0616 
r137 964 966 0.089172 
r138 964 965 0.0204618 
r139 963 964 0.089172 
r140 962 963 0.089172 
r141 961 962 0.089172 
r142 960 961 0.089172 
r143 958 1051 0.229041 
r144 958 959 0.0863581 
r145 956 1047 0.210046 
r146 956 957 0.0863581 
r147 972 954 0.0861375 
r148 954 955 0.132033 
r149 951 1097 0.02 
r150 951 1090 0.30632 
r151 949 1096 0.02 
r152 949 1090 0.30632 
r153 947 1095 0.02 
r154 947 1090 0.30632 
r155 945 1094 0.02 
r156 945 1090 0.30632 
r157 943 1089 0.02 
r158 943 1090 0.30632 
r159 941 1088 0.02 
r160 941 1090 0.30632 
r161 939 1087 0.02 
r162 939 1090 0.30632 
r163 937 1086 0.02 
r164 937 1090 0.30632 
r165 969 935 0.35928 
r166 968 932 0.35928 
r167 967 929 0.35928 
r168 966 926 0.35928 
r169 922 963 0.0204618 
r170 922 923 0.35288 
r171 919 962 0.0204618 
r172 919 920 0.35288 
r173 961 917 0.35928 
r174 960 914 0.35928 
r175 883 1047 0.128 
r176 882 955 0.0473573 
r177 882 1047 0.126 
r178 852 883 0.0473573 
r179 959 852 0.132033 
r180 849 1098 0.02 
r181 848 1084 0.02 
r182 846 1047 0.126 
r183 845 1047 0.128 
r184 596 849 0.5605 
r185 586 596 0.0446983 
r186 586 587 1.21 
r187 584 587 0.0446983 
r188 584 848 0.5605 
r189 1024 517 0.2101 
r190 517 987 0.357143 
r191 516 1146 0.00383957 
r192 1144 516 0.0209626 
r193 1022 516 1 
r194 514 980 0.0418839 
r195 976 514 0.0414748 
r196 1002 514 0.00120077 
r197 510 1141 0.666667 
r198 508 1030 0.020124 
r199 508 510 1.88419 
r200 993 506 0.1981 
r201 506 986 0.357143 
r202 505 1141 0.0147487 
r203 1137 505 0.00589305 
r204 991 505 1 
r205 1130 493 0.130435 
r206 1071 408 0.00313778 
r207 1126 408 0.0652174 
r208 493 398 0.0031351 
r209 1128 398 0.0652174 
r210 358 493 0.00314046 
r211 1132 358 0.0652174 
r212 1014 347 0.0120388 
r213 347 1078 0.0320856 
r214 1118 330 0.130435 
r215 1062 245 0.00313778 
r216 1114 245 0.0652174 
r217 330 235 0.0031351 
r218 1116 235 0.0652174 
r219 195 330 0.00314046 
r220 1120 195 0.0652174 
r221 185 1071 0.00313778 
r222 1122 185 0.0652174 
r223 1106 167 0.130435 
r224 82 1100 0.0631579 
r225 82 1051 0.0126027 
r226 1047 82 0.0131507 
r227 1033 82 0.0652174 
r228 167 72 0.0031351 
r229 1104 72 0.0652174 
r230 32 167 0.00314046 
r231 1108 32 0.0652174 
r232 22 1062 0.00313778 
r233 1110 22 0.0652174 
r234 10 971 0.250407 
r235 10 846 0.0473573 
r236 4 957 0.250407 
r237 4 845 0.0473573 
.ends

.subckt PM_PVDC%VDDO 586 591 594 598 601 606 610 614 619 622 627 640 680 687
c0 687 0 48.7521f
c1 632 0 0.210817f
c2 630 0 22.5157f
c3 627 0 68.9279f
c4 619 0 57.9459f
c5 606 0 6.23841f
c6 598 0 2.64961f
c7 591 0 21.4952f
c8 555 0 9.78802f
c9 554 0 9.76169f
c10 447 0 0.622806f
c11 435 0 0.592544f
c12 17 0 0.152029f
c13 16 0 6.85784f
c14 7 0 0.152029f
c15 6 0 6.83044f
r16 686 687 0.00347712 
r17 685 686 0.526536 
r18 684 685 0.0105447 
r19 683 684 0.0210806 
r20 680 683 0.00480174 
r21 646 648 0.0044 
r22 640 642 0.1811 
r23 635 685 0.153846 
r24 646 632 3 
r25 630 632 3 
r26 630 635 1.68913 
r27 622 625 0.0110207 
r28 618 619 0.130751 
r29 610 612 0.1811 
r30 604 606 0.0542058 
r31 601 604 0.0536763 
r32 642 590 0.5 
r33 590 591 0.00284461 
r34 555 648 0.2648 
r35 554 648 0.2648 
r36 553 646 0.262 
r37 552 648 0.2664 
r38 451 684 0.02 
r39 451 452 0.758885 
r40 447 640 0.1699 
r41 447 686 1.5 
r42 445 627 0.108412 
r43 625 445 0.0963319 
r44 445 604 0.00150602 
r45 452 444 0.510769 
r46 625 444 0.2 
r47 442 598 0.0653756 
r48 594 442 0.0655388 
r49 618 442 0.00181159 
r50 439 618 0.117583 
r51 614 439 0.0134945 
r52 439 452 0.2 
r53 438 590 0.468512 
r54 586 438 0.00395612 
r55 612 438 0.5 
r56 435 610 0.1699 
r57 435 683 1.5 
r58 555 17 0.0447329 
r59 17 648 1.51848 
r60 16 554 0.0447329 
r61 16 648 1.51162 
r62 553 7 0.0447329 
r63 7 648 1.51848 
r64 6 552 0.0447329 
r65 6 648 1.51162 
.ends

.subckt PM_PVDC%VDD 18 23 25 31 33 39
c0 39 0 1.59689f
c1 33 0 1.74457f
c2 31 0 93.9561f
c3 17 0 31.8699f
c4 6 0 19.7398f
r5 29 31 0.000500966 
r6 28 29 0.0824842 
r7 25 28 0.000722473 
r8 7 43 0.141 
r9 39 7 0.0621 
r10 7 29 0.0925926 
r11 6 23 0.00251501 
r12 17 6 0.130511 
r13 43 6 0.6 
r14 3 37 0.105 
r15 33 3 0.0611 
r16 3 28 0.0925926 
r17 17 2 0.311322 
r18 18 2 0.00408743 
r19 37 2 0.6 
.ends

