* File: pt3b02.dist.sp.pex
* Created: Sun Jul  4 12:58:19 2010
* Program "Calibre xRC"
* Version "v2008.4_19.14"
* Nominal Temperature: 27C
* Circuit Temperature: 27C
* 
.subckt PM_PT3B02%PAD 21 50 79 108 137 166 218 242 266 290 320 326 389 428 452
+ 459
c0 467 0 29.7343f
c1 460 0 83.2789f
c2 459 0 64.3341f
c3 456 0 159.215f
c4 451 0 1.02644f
c5 444 0 9.95288f
c6 434 0 14.4399f
c7 425 0 0.117887f
c8 423 0 214.132f
c9 408 0 15.3329f
c10 397 0 46.9231f
c11 392 0 65.4578f
c12 390 0 15.8923f
c13 389 0 1.04872f
c14 388 0 3.87636f
c15 326 0 13.4236f
c16 320 0 13.415f
c17 290 0 13.4098f
c18 266 0 13.4219f
c19 242 0 13.6994f
c20 218 0 13.4116f
c21 176 0 7.52869f
c22 166 0 2.98552f
c23 149 0 6.78371f
c24 137 0 2.98621f
c25 120 0 6.78371f
c26 108 0 2.98621f
c27 91 0 6.78371f
c28 79 0 2.9856f
c29 62 0 6.78371f
c30 50 0 2.98471f
c31 33 0 6.78371f
c32 21 0 2.98457f
c33 4 0 6.78371f
r34 467 468 0.118407 
r35 466 467 0.118407 
r36 465 466 0.056883 
r37 464 465 0.061524 
r38 463 464 0.118407 
r39 462 463 0.0830354 
r40 461 462 0.0353716 
r41 459 460 0.0126934 
r42 457 459 0.000382252 
r43 456 457 0.0669731 
r44 451 452 0.00916 
r45 444 462 0.0545455 
r46 434 465 0.015 
r47 425 428 0.00916 
r48 425 451 2 
r49 423 434 0.0264274 
r50 421 423 0.147454 
r51 421 422 0.0288462 
r52 415 416 0.00752787 
r53 414 415 0.021023 
r54 412 414 0.000537705 
r55 412 456 0.00162999 
r56 410 412 0.000537705 
r57 408 410 0.0285508 
r58 399 451 0.1388 
r59 398 399 0.132996 
r60 397 398 0.0171733 
r61 394 395 0.0171733 
r62 393 394 0.0171733 
r63 392 393 0.0171733 
r64 391 397 0.0142401 
r65 391 395 0.00293318 
r66 390 422 0.00646891 
r67 390 392 0.00818451 
r68 388 444 0.202116 
r69 388 389 0.0147368 
r70 315 320 0.0072093 
r71 392 315 0.0566038 
r72 313 326 0.0072093 
r73 398 313 0.0566038 
r74 286 290 0.0072093 
r75 397 286 0.0566038 
r76 262 266 0.0072093 
r77 395 262 0.0566038 
r78 238 242 0.0072093 
r79 394 238 0.0566038 
r80 214 218 0.0072093 
r81 393 214 0.0566038 
r82 194 197 0.0022831 
r83 416 194 0.0375475 
r84 194 457 0.00547945 
r85 414 193 0.00210084 
r86 191 193 0.000537705 
r87 410 191 0.00210084 
r88 193 182 0.0105115 
r89 415 182 0.00712251 
r90 178 197 0.0187738 
r91 182 178 0.00376393 
r92 416 178 0.00712251 
r93 176 191 0.0142754 
r94 408 176 0.00356125 
r95 460 173 0.345778 
r96 172 468 0.0220132 
r97 172 173 0.319822 
r98 166 153 0.00249413 
r99 173 153 0.0425532 
r100 149 166 0.00249413 
r101 173 149 0.0425532 
r102 460 144 0.345778 
r103 143 467 0.0220132 
r104 143 144 0.319822 
r105 137 124 0.00249413 
r106 144 124 0.0425532 
r107 120 137 0.00249413 
r108 144 120 0.0425532 
r109 460 115 0.345778 
r110 114 466 0.0220132 
r111 114 115 0.319822 
r112 108 95 0.00249413 
r113 115 95 0.0425532 
r114 91 108 0.00249413 
r115 115 91 0.0425532 
r116 460 86 0.345778 
r117 85 464 0.0220132 
r118 85 86 0.319822 
r119 79 66 0.00249413 
r120 86 66 0.0425532 
r121 62 79 0.00249413 
r122 86 62 0.0425532 
r123 460 57 0.345778 
r124 56 463 0.0220132 
r125 56 57 0.319822 
r126 50 37 0.00249413 
r127 57 37 0.0425532 
r128 33 50 0.00249413 
r129 57 33 0.0425532 
r130 460 28 0.345778 
r131 27 461 0.0220132 
r132 27 28 0.319822 
r133 21 8 0.00249413 
r134 28 8 0.0425532 
r135 4 21 0.00249413 
r136 28 4 0.0425532 
.ends

.subckt PM_PT3B02%noxref_2 8 18
c0 20 0 4.82222f
c1 18 0 0.993329f
c2 8 0 6.70681f
r3 18 20 0.158105 
r4 20 8 0.158526 
.ends

.subckt PM_PT3B02%net_m32_VSSO_res 25 97 101 105 109 113
c0 113 0 0.519409f
c1 109 0 0.519409f
c2 105 0 0.519409f
c3 101 0 0.733303f
c4 97 0 0.73297f
c5 93 0 0.864037f
c6 87 0 0.0518462f
c7 53 0 0.0631005f
c8 43 0 0.242979f
c9 42 0 0.19588f
c10 41 0 0.135544f
c11 40 0 0.102874f
c12 39 0 0.162435f
c13 25 0 0.371125f
c14 24 0 0.190505f
c15 23 0 0.0477785f
c16 22 0 0.371634f
r17 88 93 0.0552941 
r18 87 88 0.02 
r19 86 87 0.124706 
r20 54 97 85 
r21 52 113 85 
r22 52 53 0.93595 
r23 51 109 85 
r24 50 51 1.5553 
r25 49 93 2.20253 
r26 48 50 6.2212 
r27 48 49 1.5553 
r28 47 105 85 
r29 46 48 10.0922 
r30 46 47 1.5553 
r31 45 101 85 
r32 44 53 2.23066 
r33 43 54 3.37824 
r34 43 44 10.8571 
r35 42 50 4.70046 
r36 41 53 2.23066 
r37 41 42 9 
r38 40 45 3.37824 
r39 39 46 2.90323 
r40 39 40 10.8571 
r41 24 25 0.18 
r42 86 23 0.0446983 
r43 22 24 0.0446983 
r44 22 23 0.521176 
.ends

.subckt PM_PT3B02%U28_padr 40 46 54 116 118 121 160
c0 224 0 16.1925f
c1 218 0 9.31824f
c2 214 0 15.9299f
c3 197 0 0.145078f
c4 196 0 0.0372956f
c5 195 0 0.0478417f
c6 194 0 0.0873247f
c7 191 0 6.60978f
c8 188 0 0.611623f
c9 186 0 5.63632f
c10 184 0 0.516633f
c11 182 0 0.0693973f
c12 181 0 0.207306f
c13 180 0 0.411447f
c14 174 0 1.73033f
c15 165 0 1.83121f
c16 161 0 0.433354f
c17 160 0 1.07645f
c18 159 0 0.703354f
c19 140 0 0.394633f
c20 136 0 0.0843457f
c21 121 0 1.09106f
c22 118 0 0.567391f
c23 116 0 1.02291f
c24 109 0 0.093022f
c25 88 0 16.1234f
c26 83 0 0.386024f
c27 82 0 0.370735f
c28 80 0 0.40312f
c29 76 0 0.421448f
c30 70 0 0.226943f
c31 69 0 0.0193661f
c32 68 0 0.0834583f
c33 66 0 0.0580109f
c34 65 0 0.0700572f
c35 64 0 0.0831665f
c36 60 0 0.30153f
c37 58 0 0.0331349f
c38 57 0 0.0954138f
c39 54 0 1.27015f
c40 51 0 0.068806f
c41 50 0 0.372865f
c42 46 0 2.39968f
c43 44 0 0.512434f
c44 40 0 2.3275f
r45 224 216 0.172857 
r46 214 216 6 
r47 213 214 10.9933 
r48 197 199 3 
r49 196 197 0.109474 
r50 196 194 0.0456991 
r51 194 195 0.147143 
r52 191 224 2 
r53 189 195 0.0446983 
r54 189 191 10.3129 
r55 188 199 0.30381 
r56 218 186 0.185079 
r57 184 186 1.2 
r58 183 184 0.482857 
r59 181 183 0.0446983 
r60 181 182 0.125714 
r61 180 182 0.0446983 
r62 179 188 0.0446983 
r63 179 180 0.407619 
r64 174 176 2.8475 
r65 159 218 0.18836 
r66 159 160 0.0147368 
r67 125 127 3.75467 
r68 140 109 0.77 
r69 108 121 168.333 
r70 108 109 3.92502 
r71 103 118 51.6667 
r72 102 103 1.66667 
r73 95 116 168.333 
r74 136 95 3.6393 
r75 174 90 6 
r76 127 88 0.434667 
r77 176 88 6 
r78 176 85 0.8025 
r79 85 140 6 
r80 83 172 1.2525 
r81 83 213 6 
r82 82 136 0.7825 
r83 172 82 6 
r84 165 80 6 
r85 77 168 0.8 
r86 165 77 2.88 
r87 77 127 6 
r88 168 76 6 
r89 74 213 3.984 
r90 161 74 6 
r91 161 71 0.482667 
r92 71 125 6 
r93 70 90 0.05 
r94 66 76 0.642857 
r95 65 80 0.642857 
r96 64 70 0.0446983 
r97 63 69 0.0338756 
r98 63 64 0.1875 
r99 60 102 1.16667 
r100 59 69 0.0338756 
r101 59 60 0.245 
r102 57 69 0.00880368 
r103 57 58 0.25 
r104 53 58 0.0446983 
r105 53 54 1.2575 
r106 52 54 1.3775 
r107 50 52 0.0447588 
r108 50 51 0.544 
r109 68 46 2.375 
r110 44 68 0.12 
r111 43 66 0.0449572 
r112 43 44 0.8475 
r113 39 65 0.0449572 
r114 39 40 1.4975 
r115 38 51 0.0447588 
r116 38 40 1.3775 
.ends

.subckt PM_PT3B02%VSS 587 773 804 826 851 856 869 871 876
c0 876 0 92.2919f
c1 869 0 55.5964f
c2 854 0 2.37405f
c3 851 0 0.00368951f
c4 848 0 1.24098f
c5 835 0 1.21678f
c6 822 0 1.88726f
c7 815 0 15.2656f
c8 801 0 1.45504f
c9 786 0 25.3164f
c10 784 0 0.0842555f
c11 783 0 0.0657505f
c12 782 0 7.75835f
c13 780 0 0.269279f
c14 777 0 0.0372194f
c15 773 0 4.21666f
c16 770 0 0.198007f
c17 768 0 0.849344f
c18 765 0 10.3731f
c19 758 0 8.74316f
c20 755 0 0.253082f
c21 754 0 0.0998472f
c22 753 0 1.91336f
c23 629 0 2.25025f
c24 625 0 2.49124f
c25 620 0 1.8723f
c26 618 0 0.228409f
c27 616 0 0.276497f
c28 613 0 26.6344f
c29 607 0 0.816164f
c30 606 0 6.34069f
c31 600 0 2.03915f
c32 594 0 0.137389f
c33 593 0 2.4894f
c34 592 0 0.154374f
c35 591 0 2.26457f
c36 587 0 0.00279637f
c37 539 0 0.162892f
c38 537 0 0.72248f
c39 535 0 0.203897f
c40 510 0 2.94312f
c41 496 0 3.05957f
c42 494 0 0.031054f
c43 491 0 0.729043f
c44 490 0 7.74042f
c45 489 0 0.203811f
c46 474 0 5.70515f
c47 471 0 3.25514f
r48 871 874 0.000703354 
r49 867 869 0.00318245 
r50 866 867 0.00119641 
r51 865 866 0.0758524 
r52 864 865 0.0344168 
r53 863 864 0.167059 
r54 862 863 0.0871386 
r55 861 862 0.0414357 
r56 860 861 0.0141176 
r57 859 860 0.089651 
r58 856 859 0.00438684 
r59 854 867 0.461538 
r60 848 851 1.28857 
r61 848 865 1.5 
r62 842 863 0.0535714 
r63 840 861 1.5 
r64 840 842 1.612 
r65 835 838 0.045 
r66 835 862 0.666667 
r67 829 866 0.428571 
r68 826 829 0.189 
r69 824 876 0.000702051 
r70 874 824 0.0832563 
r71 822 824 0.131579 
r72 822 826 0.013 
r73 819 820 0.56934 
r74 818 819 1.12447 
r75 815 818 0.628223 
r76 815 864 0.3 
r77 807 859 0.428571 
r78 804 807 0.189 
r79 801 804 0.013 
r80 801 874 0.131579 
r81 782 842 2.8715 
r82 782 783 0.0338756 
r83 786 779 1 
r84 779 780 0.0155975 
r85 777 840 1.283 
r86 776 784 0.0338756 
r87 775 783 0.0338756 
r88 773 846 2.59036 
r89 844 773 1.07807 
r90 772 784 0.00880368 
r91 772 773 0.958 
r92 771 783 0.00880368 
r93 771 773 0.986 
r94 780 770 0.0632911 
r95 770 768 0.0574488 
r96 765 784 0.0338756 
r97 764 777 0.0448201 
r98 761 854 1.518 
r99 760 854 0.426 
r100 758 846 1.08482 
r101 755 844 1.06072 
r102 754 773 3.1035 
r103 753 754 0.0448201 
r104 753 764 2.13041 
r105 765 631 0.733 
r106 773 631 1.93 
r107 629 788 3 
r108 844 625 1 
r109 788 620 0.24 
r110 819 620 1.5 
r111 631 618 3 
r112 818 618 3 
r113 616 846 3 
r114 820 616 3 
r115 613 812 1.1314 
r116 613 860 0.125 
r117 612 625 0.0075 
r118 634 612 0.056 
r119 812 612 0.24 
r120 608 786 0.9662 
r121 608 634 0.02 
r122 607 776 0.5005 
r123 761 607 0.0446983 
r124 606 775 0.5005 
r125 760 606 0.0446983 
r126 605 629 0.830244 
r127 604 629 0.573659 
r128 599 600 1.37048 
r129 594 605 0.0448242 
r130 594 595 0.678222 
r131 593 600 0.0447675 
r132 593 595 0.650667 
r133 592 604 0.0446983 
r134 591 599 0.0447067 
r135 591 592 1.45854 
r136 838 587 0.31875 
r137 538 539 0.147619 
r138 534 535 0.14988 
r139 758 534 0.0380723 
r140 531 533 0.143333 
r141 755 530 0.0385542 
r142 528 530 0.14506 
r143 773 527 0.159 
r144 510 773 0.159 
r145 509 539 0.02 
r146 509 527 1.247 
r147 508 535 0.02 
r148 508 510 1.243 
r149 773 507 0.192 
r150 505 773 0.192 
r151 504 505 0.342 
r152 773 504 0.192 
r153 502 773 0.192 
r154 501 502 0.342 
r155 773 501 0.192 
r156 499 773 0.192 
r157 498 499 0.342 
r158 773 498 0.192 
r159 496 773 0.192 
r160 495 538 0.02 
r161 495 507 1.214 
r162 494 537 0.04 
r163 494 496 0.243 
r164 492 534 0.02 
r165 492 537 0.938734 
r166 779 491 0.102486 
r167 490 538 0.0380952 
r168 490 491 4.80524 
r169 489 768 0.555238 
r170 489 533 0.0380952 
r171 773 485 0.159 
r172 483 773 0.159 
r173 482 483 0.408 
r174 773 482 0.159 
r175 480 773 0.159 
r176 479 480 0.408 
r177 773 479 0.159 
r178 477 773 0.159 
r179 476 477 0.408 
r180 773 476 0.159 
r181 474 773 0.159 
r182 473 533 0.02 
r183 473 485 1.247 
r184 472 530 0.02 
r185 472 474 1.243 
r186 471 531 0.02 
r187 470 528 0.02 
r188 470 471 4.69271 
.ends

.subckt PM_PT3B02%U28_U42_r1 149 154 159 164 169 174 188
c0 301 0 0.256896f
c1 297 0 0.130993f
c2 295 0 0.458247f
c3 290 0 0.459063f
c4 281 0 2.82662f
c5 267 0 0.46935f
c6 262 0 0.712979f
c7 261 0 0.670736f
c8 256 0 0.304369f
c9 254 0 0.273588f
c10 252 0 0.0792102f
c11 251 0 0.329567f
c12 248 0 6.54958f
c13 242 0 1.16697f
c14 241 0 0.15976f
c15 240 0 1.16995f
c16 239 0 0.16201f
c17 238 0 9.0818f
c18 237 0 0.287701f
c19 235 0 0.606217f
c20 231 0 0.136486f
c21 225 0 0.0903556f
c22 217 0 0.171215f
c23 211 0 0.680566f
c24 203 0 0.534966f
c25 195 0 0.535215f
c26 189 0 0.300179f
c27 188 0 0.278026f
c28 181 0 0.163718f
c29 180 0 0.607807f
c30 179 0 0.168943f
c31 178 0 0.608149f
c32 177 0 0.169158f
c33 176 0 0.538598f
c34 174 0 3.10391f
c35 169 0 3.04886f
c36 164 0 3.04886f
c37 159 0 3.04886f
c38 154 0 3.04886f
c39 149 0 3.10219f
r40 269 301 0.00341463 
r41 267 269 3 
r42 264 295 0.00292683 
r43 292 264 0.0526829 
r44 262 264 1.5 
r45 259 290 0.00536585 
r46 287 259 0.0502439 
r47 257 259 1.5 
r48 257 261 0.0965568 
r49 255 267 0.05061 
r50 255 256 0.662857 
r51 254 267 0.05061 
r52 253 254 0.202353 
r53 251 256 0.0446983 
r54 251 252 0.352857 
r55 248 297 6 
r56 246 252 0.0448488 
r57 246 248 6.78194 
r58 262 242 0.117875 
r59 242 261 1.448 
r60 257 240 0.115897 
r61 240 241 1.452 
r62 238 253 0.0487211 
r63 238 239 10.986 
r64 283 237 0.0521951 
r65 235 237 3 
r66 234 241 0.062236 
r67 234 235 0.06528 
r68 233 239 0.062236 
r69 233 235 0.13632 
r70 229 297 0.130323 
r71 228 231 0.153548 
r72 228 229 0.02 
r73 225 281 6 
r74 223 231 0.02 
r75 223 225 0.132903 
r76 222 281 3.99613 
r77 221 222 0.026898 
r78 217 221 0.10143 
r79 217 188 0.106667 
r80 181 211 1.85294 
r81 180 203 5.05882 
r82 179 203 5.05882 
r83 178 195 5.05882 
r84 177 195 5.05882 
r85 176 189 1.85294 
r86 171 181 3.88985 
r87 171 174 183.96 
r88 166 180 3.88985 
r89 166 169 183.96 
r90 161 179 3.88985 
r91 161 164 183.96 
r92 156 178 3.88985 
r93 156 159 183.96 
r94 151 177 3.88985 
r95 151 154 183.96 
r96 146 176 3.88985 
r97 146 149 183.96 
r98 211 99 0.00142683 
r99 301 99 3 
r100 203 81 0.00142683 
r101 295 81 3 
r102 195 56 0.00142683 
r103 290 56 3 
r104 203 45 0.0277856 
r105 292 45 3 
r106 189 20 0.00142683 
r107 283 20 3 
r108 195 9 0.0277856 
r109 287 9 3 
.ends

.subckt PM_PT3B02%VSSO 409 434 436 472 793 797 804 833 840 852 866 868 873 878
+ 884 893 899 905 911 920 926 932 941 947 953 962 968 974 983 989 1001 1053 1059
+ 1063 1069
c0 1069 0 32.1271f
c1 1056 0 2.00115f
c2 1053 0 46.6607f
c3 1033 0 7.93618f
c4 1031 0 6.95875f
c5 1026 0 6.95903f
c6 1021 0 6.96073f
c7 1016 0 6.96397f
c8 1011 0 6.9659f
c9 1001 0 0.00391448f
c10 996 0 8.95235f
c11 989 0 0.342408f
c12 974 0 1.36597f
c13 968 0 1.40025f
c14 953 0 1.35721f
c15 947 0 1.35624f
c16 932 0 1.34294f
c17 926 0 1.34013f
c18 911 0 1.20335f
c19 905 0 0.840215f
c20 899 0 1.37894f
c21 884 0 2.02532f
c22 878 0 1.55498f
c23 873 0 1.69019f
c24 871 0 0.242286f
c25 868 0 0.00103935f
c26 866 0 8.25608e-19
c27 864 0 8.96457f
c28 850 0 7.85649f
c29 846 0 1.27875f
c30 836 0 1.65707f
c31 833 0 58.2593f
c32 800 0 1.34804f
c33 797 0 10.6383f
c34 785 0 0.115324f
c35 779 0 5.05312f
c36 776 0 0.112727f
c37 775 0 0.0408091f
c38 774 0 1.53039f
c39 772 0 0.0508684f
c40 771 0 0.327339f
c41 770 0 0.687295f
c42 764 0 0.580841f
c43 760 0 0.708327f
c44 758 0 0.04289f
c45 757 0 3.25503f
c46 755 0 0.383003f
c47 754 0 0.713156f
c48 753 0 0.303464f
c49 752 0 3.27963f
c50 751 0 0.383249f
c51 750 0 2.15428f
c52 748 0 0.0575881f
c53 747 0 0.183911f
c54 746 0 0.343268f
c55 713 0 0.122915f
c56 712 0 8.90513f
c57 679 0 0.269574f
c58 675 0 7.03694f
c59 671 0 0.146306f
c60 472 0 0.43092f
c61 456 0 0.962363f
c62 454 0 0.101486f
c63 452 0 0.227322f
c64 450 0 1.53056f
c65 449 0 0.0347102f
c66 448 0 0.346471f
c67 436 0 0.78472f
c68 435 0 0.108671f
c69 434 0 0.346872f
c70 433 0 0.193042f
c71 430 0 0.0481914f
c72 429 0 0.436605f
c73 409 0 0.114597f
c74 402 0 0.121709f
c75 317 0 7.05117f
c76 284 0 14.0334f
c77 234 0 14.0341f
c78 184 0 14.036f
c79 134 0 14.0388f
c80 84 0 14.0404f
c81 10 0 0.146306f
r82 1067 1069 0.00282778 
r83 1066 1067 0.355444 
r84 1063 1066 0.00283333 
r85 1058 1060 0.010449 
r86 1058 1059 0.02 
r87 1056 1058 0.0140408 
r88 1050 1051 0.166203 
r89 1049 1050 0.0396791 
r90 1048 1049 0.043262 
r91 1047 1048 0.0347594 
r92 1046 1047 0.0198396 
r93 1045 1046 0.07 
r94 1044 1045 0.0253476 
r95 1043 1044 0.0230481 
r96 1042 1043 0.0475936 
r97 1041 1042 0.0226738 
r98 1040 1041 0.0233155 
r99 1039 1040 0.0203209 
r100 1038 1039 0.0213904 
r101 1037 1056 0.02 
r102 1037 1038 0.0715508 
r103 1005 1006 0.0140639 
r104 1000 1001 0.0126606 
r105 1033 998 0.0113761 
r106 996 998 0.0638298 
r107 993 1051 2 
r108 989 993 0.000380952 
r109 977 1050 0.6 
r110 974 977 0.285 
r111 971 1049 0.6 
r112 968 971 0.32 
r113 956 1048 0.6 
r114 953 956 0.36 
r115 950 1047 0.6 
r116 947 950 0.37 
r117 935 1045 0.6 
r118 932 935 0.3225 
r119 929 1044 0.6 
r120 926 929 0.325 
r121 914 1043 0.6 
r122 911 914 0.3425 
r123 908 1042 0.75 
r124 905 908 0.04 
r125 902 1041 0.6 
r126 899 902 0.365 
r127 887 1040 0.6 
r128 884 887 0.194286 
r129 881 1039 0.6 
r130 878 881 0.3175 
r131 875 1038 0.666667 
r132 873 875 0.96 
r133 866 1000 0.013211 
r134 996 866 0.000917431 
r135 864 866 0.000913242 
r136 864 1005 0.0638298 
r137 851 852 0.02 
r138 850 1005 0.0113242 
r139 848 850 0.0327869 
r140 848 851 0.0166784 
r141 846 848 0.029258 
r142 843 1067 0.357143 
r143 840 843 0.21 
r144 838 1053 0.00544385 
r145 1051 838 0.0345455 
r146 836 838 1 
r147 836 840 0.445 
r148 831 833 0.00612761 
r149 831 1033 0.0327869 
r150 983 829 0.130435 
r151 829 1031 0.00301741 
r152 1028 829 0.00301741 
r153 827 829 0.0266667 
r154 827 831 0.0287785 
r155 962 826 0.130435 
r156 826 1026 0.00301741 
r157 1023 826 0.00301741 
r158 824 826 0.0266667 
r159 824 827 0.0242129 
r160 941 823 0.130435 
r161 823 1021 0.00301741 
r162 1018 823 0.00301741 
r163 821 823 0.0266667 
r164 821 824 0.0242129 
r165 820 821 0.000615582 
r166 920 819 0.130435 
r167 819 1016 0.00301741 
r168 1013 819 0.00301741 
r169 817 819 0.0266667 
r170 817 820 0.0235973 
r171 893 816 0.130435 
r172 816 1011 0.00301741 
r173 1008 816 0.00301741 
r174 814 816 0.0266667 
r175 814 817 0.0242129 
r176 813 846 0.02 
r177 813 814 0.0277012 
r178 851 810 0.429445 
r179 807 1066 0.357143 
r180 804 807 0.21 
r181 802 1062 0.144104 
r182 1060 802 0.0333061 
r183 800 802 1 
r184 800 804 0.445 
r185 788 871 3 
r186 785 788 0.0536842 
r187 778 785 0.02 
r188 778 779 6.35789 
r189 775 776 0.1275 
r190 774 775 0.0448391 
r191 773 774 2.75862 
r192 771 773 0.044715 
r193 771 772 0.466667 
r194 770 772 0.0450432 
r195 1062 770 1.29371 
r196 764 785 0.02 
r197 764 765 0.746316 
r198 762 1001 0.230275 
r199 760 996 0.210275 
r200 758 871 0.109474 
r201 756 868 0.229041 
r202 756 757 0.0863581 
r203 754 864 0.209132 
r204 754 755 0.0863581 
r205 762 752 0.0861375 
r206 752 753 0.132033 
r207 760 751 0.0861375 
r208 758 750 0.0420103 
r209 749 750 3.01467 
r210 747 749 0.0446983 
r211 747 748 0.276 
r212 746 748 0.0447588 
r213 713 866 0.128 
r214 712 753 0.0473573 
r215 712 866 0.126 
r216 679 713 0.0473573 
r217 757 679 0.132033 
r218 675 866 0.126 
r219 674 873 1.1475 
r220 672 866 0.128 
r221 671 672 0.0473573 
r222 671 755 0.250407 
r223 779 458 6 
r224 1046 456 0.75 
r225 776 454 3 
r226 472 452 0.0610526 
r227 765 452 2 
r228 449 456 0.437895 
r229 449 450 0.0407126 
r230 674 448 0.0338756 
r231 435 458 0.0413535 
r232 435 436 1.14783 
r233 433 434 0.221176 
r234 429 433 0.0446983 
r235 429 430 0.608235 
r236 427 430 0.0446983 
r237 427 450 2.01647 
r238 408 448 0.00880368 
r239 408 409 0.1375 
r240 402 746 0.6025 
r241 402 454 0.0265396 
r242 320 797 0.0419737 
r243 793 320 0.0413851 
r244 820 320 0.00128205 
r245 810 317 2.21804 
r246 317 1060 0.6 
r247 983 284 0.00313778 
r248 1031 284 0.0652174 
r249 998 273 0.0141284 
r250 273 1000 0.0652174 
r251 962 234 0.00313778 
r252 1026 234 0.0652174 
r253 224 983 0.00313778 
r254 1028 224 0.0652174 
r255 941 184 0.00313778 
r256 1021 184 0.0652174 
r257 174 962 0.00313778 
r258 1023 174 0.0652174 
r259 920 134 0.00313778 
r260 1016 134 0.0652174 
r261 124 941 0.00313778 
r262 1018 124 0.0652174 
r263 893 84 0.00313778 
r264 1011 84 0.0652174 
r265 74 920 0.00313778 
r266 1013 74 0.0652174 
r267 34 868 0.0126027 
r268 866 34 0.0131507 
r269 1006 34 0.0652174 
r270 24 893 0.00313778 
r271 1008 24 0.0652174 
r272 10 751 0.250407 
r273 10 675 0.0473573 
.ends

.subckt PM_PT3B02%U15_ngate 70 77 84 91 99 107 143 145 193 199
c0 245 0 16.5881f
c1 237 0 0.535284f
c2 236 0 0.794406f
c3 233 0 0.0955656f
c4 232 0 5.29594f
c5 230 0 0.197575f
c6 228 0 6.57272f
c7 225 0 0.103554f
c8 211 0 2.99129f
c9 201 0 0.605798f
c10 200 0 0.168817f
c11 199 0 3.04886f
c12 193 0 3.04886f
c13 153 0 0.431532f
c14 145 0 0.595965f
c15 143 0 0.831149f
c16 140 0 0.149707f
c17 137 0 0.145618f
c18 128 0 0.138124f
c19 125 0 1.34438f
c20 124 0 0.136955f
c21 121 0 0.813533f
c22 116 0 3.13564f
c23 114 0 0.0428228f
c24 113 0 0.0461791f
c25 112 0 0.0261329f
c26 111 0 0.0261329f
c27 107 0 0.998684f
c28 104 0 0.124461f
c29 103 0 1.65373f
c30 99 0 1.54001f
c31 96 0 0.0767532f
c32 95 0 0.252995f
c33 91 0 1.35208f
c34 88 0 0.352496f
c35 84 0 1.42004f
c36 81 0 0.249179f
c37 77 0 1.459f
c38 75 0 0.0502871f
c39 74 0 0.28959f
c40 70 0 1.43018f
c41 26 0 0.451158f
r42 244 245 0.397333 
r43 243 244 5.55867 
r44 240 243 1.948 
r45 234 236 0.0733484 
r46 234 252 1.5 
r47 232 236 0.0813046 
r48 232 233 5.576 
r49 240 230 6 
r50 228 230 6 
r51 227 233 0.0447005 
r52 227 228 6.41185 
r53 223 225 0.0755556 
r54 216 223 0.02 
r55 237 208 0.00142683 
r56 205 237 0.0277856 
r57 201 237 5.05882 
r58 200 237 5.05882 
r59 195 201 3.88985 
r60 195 199 183.96 
r61 190 200 3.88985 
r62 190 193 183.96 
r63 140 145 60 
r64 140 160 3.77986 
r65 137 143 85 
r66 137 153 3.53757 
r67 128 166 0.0370021 
r68 225 128 6 
r69 125 221 2.59143 
r70 125 245 6 
r71 221 124 6 
r72 216 121 1.53143 
r73 121 244 6 
r74 153 120 0.3325 
r75 211 120 6 
r76 117 214 2.2825 
r77 211 117 1.32 
r78 117 243 6 
r79 116 160 3.7825 
r80 214 116 6 
r81 113 124 0.0613333 
r82 106 107 1.2375 
r83 105 114 0.0310989 
r84 104 106 0.044713 
r85 104 105 0.152258 
r86 103 114 0.0112231 
r87 102 113 0.0447675 
r88 102 103 3.52 
r89 166 99 1.6275 
r90 97 99 1.28 
r91 95 114 0.0310989 
r92 95 96 0.301935 
r93 90 96 0.044713 
r94 90 91 1.2375 
r95 89 112 0.0338756 
r96 88 97 0.0446983 
r97 88 89 0.51 
r98 83 112 0.00880368 
r99 83 84 1.28 
r100 82 111 0.0338756 
r101 81 112 0.0338756 
r102 81 82 0.43 
r103 76 111 0.00880368 
r104 76 77 1.415 
r105 74 111 0.0338756 
r106 74 75 0.51 
r107 69 75 0.0446983 
r108 69 70 1.415 
r109 252 26 0.000487805 
r110 26 208 3 
r111 8 252 0.055122 
r112 8 205 3 
.ends

.subckt PM_PT3B02%U17_ngate2 54 64 69 76 131 137
c0 176 0 0.535425f
c1 175 0 1.11466f
c2 172 0 0.0642238f
c3 171 0 6.71519f
c4 167 0 4.35213f
c5 165 0 0.548102f
c6 155 0 0.14037f
c7 151 0 0.186791f
c8 141 0 0.200898f
c9 139 0 0.60832f
c10 138 0 0.168772f
c11 137 0 3.04886f
c12 131 0 3.04886f
c13 108 0 0.313586f
c14 103 0 12.6712f
c15 93 0 0.684216f
c16 92 0 3.16115f
c17 87 0 3.09027f
c18 86 0 0.13299f
c19 84 0 0.0343464f
c20 81 0 0.0822206f
c21 80 0 0.233076f
c22 76 0 0.47622f
c23 74 0 0.0284138f
c24 73 0 0.038923f
c25 69 0 0.493641f
c26 64 0 1.5327f
c27 62 0 0.0689673f
c28 61 0 0.123067f
c29 59 0 0.66055f
c30 58 0 3.58758f
c31 54 0 2.27669f
c32 26 0 0.448358f
r33 173 175 0.110025 
r34 173 184 1.5 
r35 171 175 0.0811344 
r36 171 172 7.098 
r37 167 169 6 
r38 166 172 0.0446983 
r39 166 167 5.048 
r40 165 169 0.597143 
r41 157 160 0.58625 
r42 155 157 0.0448391 
r43 155 156 0.0717241 
r44 151 153 6 
r45 150 165 0.0446983 
r46 150 151 0.198571 
r47 176 147 0.00142683 
r48 144 176 0.0277856 
r49 141 153 0.10375 
r50 139 176 5.05882 
r51 138 176 5.05882 
r52 133 139 3.88985 
r53 133 137 183.96 
r54 128 138 3.88985 
r55 128 131 183.96 
r56 107 108 0.245 
r57 141 107 0.04 
r58 93 163 0.742857 
r59 93 103 6 
r60 163 92 6 
r61 90 103 1.12267 
r62 160 90 6 
r63 87 160 2.98125 
r64 87 108 6 
r65 156 86 6 
r66 82 92 4.21429 
r67 81 86 0.0468966 
r68 84 76 0.545714 
r69 74 84 0.0464898 
r70 73 82 0.0464898 
r71 73 74 0.0430769 
r72 68 69 0.79 
r73 63 64 1.745 
r74 61 63 0.0451268 
r75 61 62 0.124211 
r76 60 80 0.0321994 
r77 59 68 0.0447517 
r78 59 60 0.647059 
r79 58 62 0.0451268 
r80 57 81 0.0448391 
r81 57 58 5.505 
r82 53 107 0.02 
r83 53 54 2.2575 
r84 52 80 0.010241 
r85 52 54 1.98 
r86 184 26 0.00195122 
r87 26 147 3 
r88 8 184 0.0536585 
r89 8 144 3 
.ends

.subckt PM_PT3B02%U28_ngate3 51 59 82 88
c0 123 0 14.345f
c1 117 0 0.535238f
c2 116 0 1.3548f
c3 112 0 0.197656f
c4 110 0 0.298515f
c5 109 0 0.0783866f
c6 108 0 0.0753649f
c7 107 0 8.36749f
c8 106 0 4.88531f
c9 100 0 2.68925f
c10 90 0 0.607807f
c11 89 0 0.168829f
c12 88 0 3.04886f
c13 82 0 3.04886f
c14 59 0 0.00729216f
c15 51 0 1.71078f
c16 44 0 3.2228f
c17 26 0 0.440202f
r18 120 123 1.17067 
r19 114 116 0.143664 
r20 114 130 1.5 
r21 120 112 6 
r22 110 112 6 
r23 109 110 0.231 
r24 107 116 0.0818121 
r25 107 108 8.793 
r26 106 109 0.0446983 
r27 105 108 0.0446983 
r28 105 106 5.562 
r29 117 97 0.00142683 
r30 94 117 0.0277856 
r31 90 117 5.05882 
r32 89 117 5.05882 
r33 84 90 3.88985 
r34 84 88 183.96 
r35 79 89 3.88985 
r36 79 82 183.96 
r37 51 48 1.59714 
r38 100 48 6 
r39 45 103 3.29429 
r40 100 45 0.874286 
r41 45 123 6 
r42 44 59 4.93143 
r43 103 44 6 
r44 130 26 0.00292683 
r45 26 97 3 
r46 8 130 0.0526829 
r47 8 94 3 
.ends

.subckt PM_PT3B02%U28_U72_pgate 22 41 72 91 155 157 168 179 211 217 222
c0 334 0 0.414046f
c1 331 0 0.306758f
c2 329 0 0.307529f
c3 328 0 0.307529f
c4 325 0 3.56527f
c5 323 0 0.223302f
c6 321 0 0.151681f
c7 319 0 16.0737f
c8 295 0 6.04571f
c9 293 0 0.0347659f
c10 292 0 0.0958576f
c11 291 0 0.194442f
c12 287 0 0.831484f
c13 280 0 2.00963f
c14 278 0 0.0612176f
c15 277 0 0.0386035f
c16 276 0 6.16588f
c17 267 0 0.730208f
c18 257 0 3.37097f
c19 254 0 0.147885f
c20 253 0 0.0562951f
c21 248 0 0.0940331f
c22 244 0 0.0221982f
c23 243 0 0.0419399f
c24 241 0 0.0746279f
c25 238 0 2.24557f
c26 236 0 0.0639048f
c27 235 0 0.356053f
c28 229 0 0.0623778f
c29 226 0 0.352109f
c30 222 0 1.50727f
c31 217 0 0.978987f
c32 215 0 0.0470945f
c33 214 0 0.417086f
c34 213 0 0.162982f
c35 211 0 1.51391f
c36 179 0 2.46377f
c37 173 0 1.83455f
c38 168 0 2.26471f
c39 166 0 0.052263f
c40 165 0 0.407136f
c41 153 0 5.1026f
c42 144 0 4.80867f
c43 143 0 0.371977f
c44 137 0 0.405378f
c45 131 0 0.370539f
c46 85 0 0.309607f
c47 76 0 4.91819f
c48 74 0 0.105999f
c49 66 0 0.309607f
c50 57 0 4.91956f
c51 55 0 0.105999f
c52 35 0 0.309607f
c53 26 0 4.91956f
c54 24 0 0.105999f
c55 16 0 3.63022f
c56 7 0 4.99644f
c57 5 0 0.129901f
r58 331 332 0.32439 
r59 328 329 0.32839 
r60 319 321 6 
r61 298 300 6 
r62 295 298 8.70933 
r63 295 321 6 
r64 291 300 0.0112 
r65 291 292 0.0514821 
r66 290 334 0.219512 
r67 332 290 0.16439 
r68 288 290 6 
r69 287 293 0.0142174 
r70 287 288 0.21561 
r71 286 331 0.219512 
r72 329 286 0.16039 
r73 284 286 6 
r74 282 328 0.219512 
r75 325 282 0.16039 
r76 280 282 6 
r77 280 284 0.708293 
r78 279 293 0.0142174 
r79 279 284 0.462439 
r80 277 293 0.0327344 
r81 277 278 0.149677 
r82 276 278 0.0446983 
r83 292 276 10.3252 
r84 272 323 6 
r85 269 319 3.36774 
r86 316 269 11.3923 
r87 267 269 6 
r88 267 272 1.15143 
r89 264 313 6 
r90 261 264 0.708293 
r91 261 310 6 
r92 257 261 0.708293 
r93 257 307 6 
r94 253 254 0.12 
r95 250 253 0.0451268 
r96 246 323 0.218571 
r97 245 248 0.0785714 
r98 245 246 0.02 
r99 237 248 0.02 
r100 237 238 3.30571 
r101 235 238 0.0461631 
r102 235 236 0.30026 
r103 230 244 0.0327921 
r104 229 244 0.0327921 
r105 228 236 0.0449793 
r106 228 229 0.0967164 
r107 227 243 0.0343218 
r108 226 244 0.00972501 
r109 226 227 0.514286 
r110 221 243 0.00843222 
r111 221 222 1.59625 
r112 216 241 0.0200702 
r113 216 217 1.20375 
r114 214 243 0.0343218 
r115 214 215 0.614603 
r116 213 241 0.0982456 
r117 212 215 0.0452323 
r118 212 213 0.395385 
r119 230 211 1.59625 
r120 179 176 2.3375 
r121 254 176 6 
r122 250 173 2.67 
r123 173 316 6 
r124 172 179 2.0425 
r125 167 168 2.0425 
r126 166 172 0.0446983 
r127 165 167 0.0446983 
r128 165 166 0.51 
r129 153 157 394.95 
r130 334 152 2.81176 
r131 152 153 1.5 
r132 144 155 394.95 
r133 143 332 2.74706 
r134 143 144 1.5 
r135 141 157 394.95 
r136 140 141 1.5 
r137 313 137 0.219512 
r138 137 140 2.78235 
r139 134 313 0.164878 
r140 132 155 394.95 
r141 131 134 2.74706 
r142 131 132 1.5 
r143 85 134 0.323902 
r144 310 85 0.219512 
r145 77 331 2.07647 
r146 76 91 394.95 
r147 76 77 4.2601 
r148 75 85 2.07647 
r149 74 91 394.95 
r150 74 75 4.2601 
r151 66 310 0.160878 
r152 58 329 2.07647 
r153 57 72 394.95 
r154 57 58 4.2601 
r155 56 66 2.07647 
r156 55 72 394.95 
r157 55 56 4.2601 
r158 35 66 0.327902 
r159 307 35 0.219512 
r160 27 328 2.07647 
r161 26 41 394.95 
r162 26 27 4.2601 
r163 25 35 2.07647 
r164 24 41 394.95 
r165 24 25 4.2601 
r166 16 307 0.160878 
r167 8 325 2.07647 
r168 7 22 394.95 
r169 7 8 4.2601 
r170 6 16 2.07647 
r171 5 22 394.95 
r172 5 6 4.2601 
.ends

.subckt PM_PT3B02%U15_pgate 31 38 43 50 57 68 73 113 118 141 187 193
c0 208 0 2.87253f
c1 197 0 1.20506f
c2 193 0 0.00447021f
c3 187 0 0.00533422f
c4 176 0 15.9451f
c5 174 0 0.992437f
c6 171 0 0.808629f
c7 169 0 1.50352f
c8 165 0 1.49779f
c9 158 0 0.0544354f
c10 157 0 0.281237f
c11 151 0 0.994811f
c12 146 0 1.94463f
c13 143 0 0.0585713f
c14 142 0 0.191687f
c15 141 0 0.00280858f
c16 118 0 0.0118835f
c17 113 0 0.0122797f
c18 99 0 2.79564f
c19 96 0 1.17019f
c20 94 0 0.712525f
c21 93 0 2.54614f
c22 89 0 0.302771f
c23 85 0 0.028277f
c24 83 0 0.028277f
c25 81 0 0.0289103f
c26 80 0 0.232744f
c27 79 0 0.028277f
c28 78 0 0.03399f
c29 73 0 1.46953f
c30 68 0 1.39196f
c31 65 0 0.344617f
c32 63 0 0.102424f
c33 61 0 0.45127f
c34 57 0 1.49761f
c35 54 0 0.287058f
c36 50 0 2.86743f
c37 48 0 0.046668f
c38 47 0 0.286924f
c39 43 0 2.66227f
c40 38 0 2.23618f
c41 36 0 0.0505388f
c42 35 0 0.32067f
c43 31 0 2.2055f
r44 204 205 0.336 
r45 202 204 6.292 
r46 179 208 6 
r47 205 176 4.22533 
r48 174 176 6 
r49 174 179 1.65857 
r50 171 197 6 
r51 169 193 1.43125 
r52 167 169 6 
r53 167 171 0.518356 
r54 165 187 1.4325 
r55 163 165 6 
r56 163 167 0.516164 
r57 157 159 0.0446983 
r58 157 158 0.2925 
r59 150 158 0.0446983 
r60 150 151 1.63125 
r61 145 208 3.87429 
r62 144 197 0.11625 
r63 143 144 0.0448998 
r64 142 145 0.0456127 
r65 142 143 0.183333 
r66 197 141 1.4375 
r67 99 118 4.4175 
r68 161 99 6 
r69 96 161 1.405 
r70 159 96 0.58875 
r71 96 205 6 
r72 94 155 1.395 
r73 94 204 6 
r74 93 113 4.545 
r75 155 93 6 
r76 151 91 6 
r77 146 89 6 
r78 146 86 2.26 
r79 86 202 6 
r80 84 118 1.3875 
r81 84 85 0.00880368 
r82 82 113 1.27 
r83 82 83 0.00880368 
r84 80 91 0.116143 
r85 80 81 0.0327397 
r86 77 89 0.215 
r87 77 78 0.0302706 
r88 72 73 1.3875 
r89 67 68 1.3625 
r90 66 85 0.0338756 
r91 65 72 0.0446983 
r92 65 66 0.51 
r93 64 83 0.0338756 
r94 63 85 0.0338756 
r95 63 64 0.2325 
r96 62 81 0.00977027 
r97 61 67 0.0448998 
r98 61 62 0.428889 
r99 56 81 0.0327397 
r100 56 57 1.3625 
r101 55 79 0.0338756 
r102 54 83 0.0338756 
r103 54 55 0.51 
r104 49 79 0.00880368 
r105 49 50 2.485 
r106 47 79 0.0338756 
r107 47 48 0.51 
r108 42 48 0.0446983 
r109 42 43 2.485 
r110 37 78 0.0302706 
r111 37 38 2.06 
r112 35 78 0.0119838 
r113 35 36 0.585714 
r114 30 36 0.0449572 
r115 30 31 2.06 
.ends

.subckt PM_PT3B02%CIN 14 19 26 65 118 156
c0 161 0 0.17598f
c1 145 0 0.150271f
c2 136 0 0.152407f
c3 126 0 0.442947f
c4 120 0 5.79838f
c5 115 0 0.179764f