* File: pc3x12.dist.sp.pex
* Created: Sun Jul  4 12:53:32 2010
* Program "Calibre xRC"
* Version "v2008.4_19.14"
* Nominal Temperature: 27C
* Circuit Temperature: 27C
* 
.subckt PM_PC3X12%Z 14 23 32 37 104 132
c0 128 0 8.82806f
c1 122 0 15.8047f
c2 108 0 0.175291f
c3 106 0 7.11998f
c4 101 0 0.136174f
c5 99 0 0.0990467f
c6 97 0 0.0427697f
c7 96 0 3.61003f
c8 95 0 5.02468f
c9 93 0 0.10743f
c10 80 0 4.49734f
c11 74 0 0.621899f
c12 67 0 0.971875f
c13 65 0 2.73776f
c14 62 0 0.188776f
c15 60 0 0.0382854f
c16 56 0 8.87728f
c17 47 0 0.816261f
c18 46 0 0.0360137f
c19 43 0 0.0732458f
c20 37 0 2.35443f
c21 36 0 0.0651423f
c22 32 0 1.42735f
c23 31 0 0.0313385f
c24 30 0 0.182262f
c25 28 0 0.0963291f
c26 23 0 0.970312f
c27 21 0 0.0685632f
c28 20 0 0.258227f
c29 19 0 0.0420185f
c30 18 0 0.295244f
c31 14 0 1.39199f
r32 120 122 4.89333 
r33 118 120 8.93333 
r34 111 128 6 
r35 122 108 6 
r36 106 108 6 
r37 106 111 8.32125 
r38 101 132 0.0207123 
r39 101 131 0.0464795 
r40 99 101 6 
r41 99 104 0.0207123 
r42 98 128 12.5875 
r43 96 98 0.0446983 
r44 96 97 5.8425 
r45 114 95 7.53571 
r46 93 95 6 
r47 131 93 0.245 
r48 91 97 0.0446983 
r49 91 93 0.0725 
r50 72 74 6 
r51 70 72 1.7075 
r52 70 120 6 
r53 65 67 6 
r54 65 70 2.085 
r55 62 114 6 
r56 60 62 0.47 
r57 80 58 8.00857 
r58 56 58 6 
r59 55 60 0.0446983 
r60 55 56 14.6143 
r61 52 80 6 
r62 47 118 6 
r63 47 52 1.40571 
r64 45 74 0.815238 
r65 42 67 1.27 
r66 41 43 0.1125 
r67 41 42 0.02 
r68 36 37 2.2925 
r69 31 32 1.7775 
r70 30 36 0.0446983 
r71 29 46 0.0338756 
r72 29 30 0.2475 
r73 28 46 0.0338756 
r74 27 31 0.0446983 
r75 27 28 0.1825 
r76 22 43 0.02 
r77 22 23 1.2425 
r78 21 45 0.0447019 
r79 20 46 0.00880368 
r80 20 21 0.39375 
r81 18 41 0.04 
r82 18 19 0.3975 
r83 13 19 0.0446983 
r84 13 14 1.2425 
.ends

.subckt PM_PC3X12%EN 74 76 78 81 105 142
c0 140 0 0.0461595f
c1 139 0 0.137938f
c2 137 0 10.2781f
c3 123 0 11.6329f
c4 112 0 16.1813f
c5 110 0 0.211726f
c6 108 0 7.55024f
c7 102 0 0.104545f
c8 99 0 0.0604908f
c9 98 0 3.26682f
c10 89 0 1.26658f
c11 81 0 0.698401f
c12 78 0 0.871596f
c13 76 0 0.0812909f
c14 74 0 0.0738462f
c15 51 0 0.104116f
c16 47 0 1.43369f
c17 38 0 3.27763f
c18 35 0 0.324817f
c19 29 0 0.12247f
c20 28 0 0.912461f
c21 3 0 0.839707f
c22 1 0 0.758719f
r23 139 142 0.0207123 
r24 139 140 0.0464795 
r25 121 123 7.34194 
r26 119 121 0.981936 
r27 116 137 6 
r28 112 116 7.53 
r29 123 110 6 
r30 108 110 6 
r31 108 112 2.325 
r32 102 105 0.0207123 
r33 102 139 6 
r34 100 137 13.2697 
r35 98 100 0.044713 
r36 98 99 5.775 
r37 96 99 0.0446983 
r38 96 140 0.0875 
r39 68 78 85 
r40 89 68 2.42502 
r41 81 53 0.672 
r42 51 53 6 
r43 49 51 0.0208 
r44 45 47 6 
r45 43 45 3.22125 
r46 43 121 6 
r47 89 40 0.9225 
r48 38 40 6 
r49 38 43 0.565 
r50 35 119 6 
r51 33 49 0.02 
r52 33 35 0.505 
r53 32 47 1.63683 
r54 28 32 0.0447019 
r55 28 29 0.975 
r56 4 29 6.91667 
r57 3 76 99.5833 
r58 3 4 3.35237 
r59 2 29 6.41667 
r60 1 74 99.5833 
r61 1 2 3.35237 
.ends

.subckt PM_PC3X12%U22_PADR 119 123 127 131 180 201 222 272 274 477 507 551
c0 580 0 16.9868f
c1 570 0 15.3361f
c2 557 0 9.25359f
c3 551 0 0.00286014f
c4 540 0 4.13621f
c5 538 0 0.224749f
c6 537 0 0.443885f
c7 534 0 7.42558f
c8 532 0 5.70457f
c9 527 0 5.94688f
c10 524 0 0.185462f
c11 523 0 7.55178f
c12 522 0 16.3797f
c13 519 0 16.7014f
c14 515 0 5.78289f
c15 513 0 2.83317f
c16 510 0 10.0857f
c17 509 0 0.403961f
c18 508 0 5.82076f
c19 507 0 0.0020484f
c20 477 0 1.70226f
c21 441 0 0.207497f
c22 437 0 5.85537f
c23 435 0 0.18339f
c24 430 0 0.223846f
c25 427 0 15.6199f
c26 406 0 0.0813924f
c27 405 0 0.0852992f
c28 404 0 0.065094f
c29 402 0 0.271883f
c30 396 0 0.22584f
c31 391 0 6.60975f
c32 388 0 0.341142f
c33 386 0 0.0901038f
c34 385 0 0.511286f
c35 384 0 0.373162f
c36 381 0 0.251618f
c37 378 0 0.544229f
c38 376 0 0.235824f
c39 373 0 0.283015f
c40 371 0 1.59388f
c41 370 0 0.879479f
c42 368 0 0.124562f
c43 366 0 0.130815f
c44 365 0 8.03229f
c45 364 0 0.0907519f
c46 363 0 7.77242f
c47 361 0 0.51421f
c48 359 0 5.49143f
c49 354 0 0.0496712f
c50 353 0 0.333676f
c51 351 0 8.09844f
c52 349 0 6.18945f
c53 339 0 0.060006f
c54 338 0 0.060006f
c55 337 0 0.0834003f
c56 336 0 0.055746f
c57 334 0 0.34805f
c58 330 0 0.50497f
c59 329 0 0.414915f
c60 326 0 0.179538f
c61 325 0 0.405304f
c62 324 0 0.345517f
c63 323 0 0.69085f
c64 320 0 0.335653f
c65 318 0 0.413927f
c66 317 0 0.271664f
c67 314 0 0.584433f
c68 313 0 0.427847f
c69 312 0 0.709321f
c70 310 0 0.927151f
c71 308 0 0.697638f
c72 306 0 0.806913f
c73 303 0 0.380445f
c74 301 0 0.30015f
c75 299 0 0.300155f
c76 298 0 0.15818f
c77 297 0 0.300074f
c78 296 0 0.262762f
c79 295 0 0.296115f
c80 294 0 0.993938f
c81 293 0 0.156953f
c82 292 0 1.06095f
c83 291 0 0.15818f
c84 270 0 5.74564f
c85 261 0 5.7195f
c86 260 0 0.307787f
c87 248 0 0.32598f
c88 247 0 0.307233f
c89 215 0 0.329233f
c90 205 0 5.86551f
c91 203 0 0.146899f
c92 184 0 5.86537f
c93 182 0 0.145602f
c94 163 0 5.86884f
c95 161 0 0.146601f
c96 158 0 0.328012f
c97 151 0 0.77522f
c98 146 0 0.327909f
c99 139 0 0.773081f
c100 131 0 3.6844f
c101 127 0 3.65401f
c102 123 0 3.6499f
c103 119 0 3.67356f
c104 79 0 0.446566f
c105 74 0 0.220737f
c106 64 0 0.150202f
c107 53 0 0.226876f
c108 43 0 0.152217f
c109 37 0 0.446285f
c110 32 0 0.219561f
c111 22 0 0.152216f
c112 11 0 0.227607f
c113 1 0 0.152836f
r114 540 557 0.375 
r115 538 540 1.3852 
r116 537 538 0.0446983 
r117 536 537 0.166 
r118 551 534 0.0175207 
r119 532 534 0.115385 
r120 529 532 0.6746 
r121 529 549 0.5 
r122 527 549 0.207375 
r123 525 527 0.5 
r124 524 525 0.518685 
r125 523 536 0.0447559 
r126 523 525 1.92188 
r127 580 522 17.4667 
r128 520 522 3 
r129 570 519 17.4613 
r130 517 519 3 
r131 517 520 0.509247 
r132 513 515 1.5 
r133 513 517 0.373333 
r134 512 524 0.044965 
r135 512 520 0.405591 
r136 511 515 1.67226 
r137 509 511 0.0704055 
r138 509 510 0.159048 
r139 508 510 0.244127 
r140 557 507 0.16686 
r141 477 508 0.0254737 
r142 447 448 0.897297 
r143 446 447 1.03135 
r144 445 446 0.897297 
r145 444 445 1.01838 
r146 570 441 6 
r147 437 455 6 
r148 580 435 6 
r149 574 430 6 
r150 574 427 16.5757 
r151 424 448 6 
r152 420 447 6 
r153 416 446 6 
r154 412 445 6 
r155 408 444 6 
r156 402 455 0.00102564 
r157 400 402 6 
r158 398 400 6.60205 
r159 398 435 6 
r160 427 396 6 
r161 394 396 6 
r162 394 398 0.490256 
r163 391 394 0.724103 
r164 391 441 6 
r165 387 388 0.16 
r166 385 387 0.0458133 
r167 385 386 0.3888 
r168 383 386 0.0446983 
r169 383 384 0.352 
r170 380 381 0.122424 
r171 379 406 0.0423984 
r172 378 380 0.0458133 
r173 378 379 0.3936 
r174 375 406 0.00239142 
r175 375 376 0.122424 
r176 374 404 0.0176786 
r177 373 406 0.0423984 
r178 373 374 0.288 
r179 372 405 0.0443819 
r180 371 384 0.0446983 
r181 371 372 1.336 
r182 370 405 0.00107549 
r183 369 404 0.0246909 
r184 369 370 0.574857 
r185 368 404 0.0246909 
r186 367 368 0.0644295 
r187 365 367 0.0468754 
r188 365 366 6.47525 
r189 363 405 0.0443819 
r190 363 364 6.6208 
r191 360 366 0.0457352 
r192 360 361 0.255758 
r193 358 364 0.0448595 
r194 358 359 5.68533 
r195 356 430 6 
r196 354 356 0.217297 
r197 353 359 0.0452539 
r198 353 356 0.220541 
r199 351 444 5.50054 
r200 349 351 6 
r201 348 354 0.0446983 
r202 348 349 8.00649 
r203 335 437 5.63848 
r204 335 336 0.038342 
r205 330 329 0.0626626 
r206 329 424 0.481039 
r207 326 325 0.063802 
r208 325 420 0.493867 
r209 323 324 0.0202927 
r210 323 416 0.446265 
r211 318 412 0.468861 
r212 317 320 0.0657561 
r213 317 318 0.02 
r214 314 313 0.0223891 
r215 313 408 0.451707 
r216 311 339 0.0338756 
r217 311 312 0.702 
r218 310 339 0.0338756 
r219 309 338 0.0338756 
r220 309 310 0.89 
r221 308 338 0.0338756 
r222 307 337 0.037369 
r223 307 308 0.68 
r224 306 337 0.037369 
r225 305 336 0.038342 
r226 305 306 1.15097 
r227 303 312 0.0446983 
r228 303 304 0.454 
r229 301 339 0.00880368 
r230 301 302 0.454 
r231 299 338 0.00880368 
r232 299 300 0.454 
r233 297 337 0.00601002 
r234 297 298 0.454 
r235 296 334 0.0209756 
r236 295 336 0.00527548 
r237 295 296 0.426341 
r238 293 294 0.342439 
r239 291 292 0.319415 
r240 290 298 0.0519604 
r241 290 292 0.0318049 
r242 270 274 394.95 
r243 269 270 1.5 
r244 261 272 394.95 
r245 260 261 1.5 
r246 258 274 394.95 
r247 330 257 1.82353 
r248 257 258 1.5 
r249 249 272 394.95 
r250 248 326 1.82353 
r251 248 249 1.5 
r252 247 269 1.82353 
r253 247 294 0.0215446 
r254 247 304 0.0304158 
r255 260 246 1.82353 
r256 246 293 0.0205784 
r257 246 302 0.031382 
r258 215 291 0.0206833 
r259 215 300 0.0312771 
r260 206 215 2.54706 
r261 205 222 394.95 
r262 205 206 4.2601 
r263 204 324 2.54706 
r264 203 222 394.95 
r265 203 204 4.2601 
r266 185 292 2.41176 
r267 184 201 394.95 
r268 184 185 4.2601 
r269 183 320 2.41176 
r270 182 201 394.95 
r271 182 183 4.2601 
r272 164 334 2.54706 
r273 163 180 394.95 
r274 163 164 4.2601 
r275 162 314 2.54706 
r276 161 180 394.95 
r277 161 162 4.2601 
r278 158 79 0.0517073 
r279 79 74 6 
r280 388 74 6 
r281 65 158 1.72353 
r282 64 131 183.96 
r283 64 65 3.88985 
r284 58 151 0.0517073 
r285 58 53 6 
r286 381 53 6 
r287 44 151 1.72353 
r288 43 127 183.96 
r289 43 44 3.88985 
r290 146 37 0.0517073 
r291 37 32 6 
r292 376 32 6 
r293 23 146 1.72353 
r294 22 123 183.96 
r295 22 23 3.88985 
r296 16 139 0.0517073 
r297 16 11 6 
r298 361 11 6 
r299 2 139 1.72353 
r300 1 119 183.96 
r301 1 2 3.88985 
.ends

.subckt PM_PC3X12%U22_U82_gate 10 38 57
c0 90 0 11.5471f
c1 84 0 3.00771f
c2 79 0 1.61999f
c3 73 0 21.2874f
c4 71 0 2.18204f
c5 67 0 0.958852f
c6 57 0 1.99825f
c7 53 0 0.327417f
c8 43 0 0.102596f
c9 38 0 1.97596f
c10 25 0 0.106627f
c11 16 0 1.68733f
c12 14 0 0.895378f
c13 13 0 0.19113f
c14 9 0 0.174487f
r15 76 84 3 
r16 90 73 11.8987 
r17 71 73 3 
r18 71 76 0.71028 
r19 84 69 0.980935 
r20 67 69 1.5 
r21 64 67 0.267523 
r22 64 82 3 
r23 53 82 0.0863415 
r24 79 53 0.437073 
r25 44 53 2.05882 
r26 43 57 154.95 
r27 43 44 4.2601 
r28 26 79 2.05882 
r29 25 38 154.95 
r30 25 26 4.2601 
r31 19 90 6 
r32 14 16 6 
r33 14 19 1.13474 
r34 12 16 2.44 
r35 12 13 0.0243776 
r36 9 13 0.0193578 
r37 9 10 0.0144444 
.ends

.subckt PM_PC3X12%U12_U27$1_gate 34 39 70
c0 91 0 4.0095f
c1 87 0 1.70911f
c2 84 0 27.2964f
c3 79 0 1.07073f
c4 73 0 0.0736527f
c5 70 0 0.293862f
c6 57 0 1.31134f
c7 56 0 0.705458f
c8 55 0 0.265998f
c9 45 0 0.404939f
c10 44 0 1.90497f
c11 43 0 0.448742f
c12 39 0 1.61404f
c13 34 0 1.61404f
r14 91 84 17.36 
r15 82 84 6 
r16 79 82 1.29171 
r17 79 87 6 
r18 77 87 2.18439 
r19 73 77 0.0492189 
r20 73 70 0.101111 
r21 62 91 6 
r22 57 59 6 
r23 57 62 0.92 
r24 55 59 0.0974912 
r25 55 56 0.0344187 
r26 44 56 19.7647 
r27 44 45 1.10351 
r28 42 56 19.7647 
r29 42 43 1.10351 
r30 35 45 2.38595 
r31 35 39 117.45 
r32 31 43 2.38595 
r33 31 34 117.465 
.ends

.subckt PM_PC3X12%VSS 491 565 576 584 592 600 608 615 871 891 1541 1546 1551
+ 1558 1562 1567 1572 1577 1588 1768 1777 1907 1932 1937 1943 1947 1958
c0 1958 0 1.46654f
c1 1947 0 1.87679f
c2 1943 0 75.7769f
c3 1942 0 0.557257f
c4 1941 0 88.079f
c5 1940 0 1.32054f
c6 1935 0 0.663338f
c7 1932 0 2.66699f
c8 1931 0 2.82448f
c9 1930 0 0.133582f
c10 1929 0 18.0932f
c11 1928 0 0.949778f
c12 1927 0 7.91621f
c13 1926 0 0.797315f
c14 1925 0 6.81027f
c15 1923 0 0.489089f
c16 1921 0 4.16023f
c17 1920 0 3.97965f
c18 1919 0 9.21477f
c19 1918 0 1.67632f
c20 1917 0 3.19586f
c21 1916 0 8.40425f
c22 1915 0 2.9316f
c23 1914 0 0.177626f
c24 1913 0 2.89547f
c25 1912 0 4.25864f
c26 1910 0 0.170158f
c27 1877 0 0.00301957f
c28 1875 0 0.982289f
c29 1874 0 6.61397f
c30 1873 0 0.00303892f
c31 1871 0 5.27377f
c32 1777 0 0.2532f
c33 1768 0 4.16976f
c34 1740 0 71.5834f
c35 1729 0 2.84564f
c36 1710 0 3.08096f
c37 1709 0 0.0549953f
c38 1702 0 14.973f
c39 1695 0 14.2038f
c40 1692 0 1.06039f
c41 1687 0 17.5236f
c42 1685 0 7.95796f
c43 1683 0 2.3427f
c44 1675 0 0.270234f
c45 1631 0 13.0214f
c46 1630 0 0.074111f
c47 1629 0 7.57939f
c48 1628 0 0.0664241f
c49 1627 0 8.42181f
c50 1626 0 0.31966f
c51 1625 0 2.33999f
c52 1614 0 1.8243f
c53 1613 0 4.7176f
c54 1588 0 10.886f
c55 1584 0 0.204101f
c56 1583 0 3.30248f
c57 1582 0 2.00464f
c58 1577 0 1.82333f
c59 1576 0 5.32742f
c60 1572 0 1.80352f
c61 1567 0 1.80339f
c62 1562 0 1.80303f
c63 1558 0 2.43778f
c64 1556 0 11.7681f
c65 1551 0 1.80009f
c66 1546 0 1.79964f
c67 1541 0 1.83319f
c68 1539 0 3.54949f
c69 1534 0 9.25941f
c70 1532 0 0.198142f
c71 1361 0 0.184918f
c72 1357 0 0.222173f
c73 1351 0 0.356038f
c74 1349 0 0.0913822f
c75 1317 0 4.08122f
c76 1315 0 0.0438425f
c77 1312 0 0.161087f
c78 1297 0 3.75323f
c79 1294 0 2.96287f
c80 894 0 0.298129f
c81 891 0 0.0083603f
c82 888 0 1.64908f
c83 886 0 0.115791f
c84 874 0 0.33444f
c85 871 0 1.84565e-19
c86 868 0 1.81689f
c87 866 0 0.0867484f
c88 615 0 0.256995f
c89 608 0 0.256705f
c90 600 0 0.025555f
c91 597 0 1.39209f
c92 592 0 0.00191678f
c93 589 0 1.39877f
c94 581 0 0.374963f
c95 573 0 6.67559f
c96 562 0 6.72292f
c97 559 0 2.21747f
c98 547 0 1.55656f
c99 540 0 12.0723f
c100 533 0 10.1386f
c101 529 0 0.0127626f
c102 514 0 0.197831f
c103 513 0 0.0312406f
c104 512 0 0.20268f
c105 510 0 0.0388736f
c106 509 0 12.0452f
c107 502 0 9.11172f
c108 499 0 1.28456f
c109 491 0 2.34902f
c110 487 0 5.29738f
c111 485 0 1.2609f
c112 483 0 1.43229f
c113 481 0 4.29723f
c114 473 0 2.85221f
c115 472 0 3.94501f
c116 471 0 0.198156f
c117 270 0 0.238635f
c118 261 0 0.162941f
c119 259 0 3.09061f
c120 258 0 0.0359991f
c121 257 0 0.983203f
c122 255 0 1.88851f
c123 253 0 2.95613f
c124 252 0 0.027237f
c125 251 0 0.499743f
c126 183 0 0.351936f
c127 180 0 16.7651f
c128 176 0 0.246018f
c129 174 0 0.323934f
c130 167 0 0.0944796f
c131 164 0 0.0516124f
c132 163 0 0.0843883f
c133 161 0 1.81999f
r134 1960 1961 0.202 
r135 1958 1960 0.022 
r136 1942 1943 0.0773494 
r137 1941 1942 0.00140671 
r138 1940 1941 0.0832563 
r139 1937 1940 0.000703354 
r140 1931 1932 0.025005 
r141 1930 1931 0.0548355 
r142 1929 1930 0.0042672 
r143 1928 1929 0.191027 
r144 1927 1928 0.00921236 
r145 1926 1927 0.0906879 
r146 1925 1926 0.0237288 
r147 1920 1921 0.0717846 
r148 1919 1920 0.0484546 
r149 1918 1919 0.0945962 
r150 1917 1918 0.0159521 
r151 1916 1917 0.0277567 
r152 1915 1916 0.0839482 
r153 1914 1915 0.0344566 
r154 1913 1914 0.00151545 
r155 1912 1913 0.055673 
r156 1907 1910 0.0026321 
r157 1904 1905 0.000275862 
r158 1903 1904 0.710897 
r159 1888 1889 0.70869 
r160 1886 1888 0.00110345 
r161 1877 1905 0.02 
r162 1875 1884 0.02 
r163 1874 1881 0.02 
r164 1873 1904 0.02 
r165 1872 1886 0.02 
r166 1871 1884 0.02 
r167 1870 1881 0.02 
r168 1782 1927 0.0666667 
r169 1780 1929 0.0740741 
r170 1774 1777 0.04 
r171 1774 1925 2 
r172 1771 1928 0.0535714 
r173 1889 1768 0.0877241 
r174 1768 1903 0.0877241 
r175 1768 1771 0.6155 
r176 1739 1740 1.0345 
r177 1737 1738 1.12289 
r178 1768 1737 2.59036 
r179 1735 1768 0.967229 
r180 1729 1935 0.461538 
r181 1710 1941 0.131579 
r182 1710 1955 0.101 
r183 1710 1942 0.131579 
r184 1709 1925 0.0865404 
r185 1923 1709 0.00757727 
r186 1955 1709 0.428571 
r187 1705 1706 1.69381 
r188 1702 1705 0.628223 
r189 1702 1926 0.3 
r190 1698 1699 1.65638 
r191 1695 1698 0.62928 
r192 1695 1930 0.3 
r193 1732 1692 0.25 
r194 1690 1692 0.25 
r195 1687 1690 0.646725 
r196 1687 1931 0.166667 
r197 1943 1685 0.00590687 
r198 1960 1685 0.131579 
r199 1683 1935 0.00119641 
r200 1932 1683 0.0243669 
r201 1961 1683 0.428571 
r202 1706 1675 3 
r203 1675 1737 3 
r204 1631 1888 0.02 
r205 1631 1738 0.111325 
r206 1629 1740 2.6035 
r207 1629 1630 0.0338756 
r208 1627 1771 1.2555 
r209 1627 1628 0.0338756 
r210 1625 1732 0.0727479 
r211 1625 1626 0.00434156 
r212 1877 1624 0.109524 
r213 1622 1630 0.0338756 
r214 1875 1622 1.2745 
r215 1620 1628 0.0338756 
r216 1874 1620 1.2745 
r217 1616 1630 0.00880368 
r218 1616 1768 0.9495 
r219 1615 1628 0.00880368 
r220 1615 1768 0.9945 
r221 1613 1782 0.072412 
r222 1613 1614 0.5605 
r223 1613 1588 0.0582667 
r224 1584 1588 0.4585 
r225 1583 1614 0.0446983 
r226 1583 1588 0.4715 
r227 1582 1584 0.0446983 
r228 1613 1582 0.5605 
r229 1576 1780 0.0572326 
r230 1576 1577 0.3592 
r231 1576 1572 0.3592 
r232 1576 1567 0.3592 
r233 1576 1562 0.3592 
r234 1560 1626 0.0535409 
r235 1556 1558 0.243878 
r236 1555 1626 0.0535409 
r237 1555 1558 0.0653061 
r238 1576 1551 0.3592 
r239 1576 1546 0.3592 
r240 1576 1541 0.3592 
r241 1539 1624 0.0380952 
r242 1537 1738 0.02 
r243 1536 1558 0.8165 
r244 1535 1558 0.8165 
r245 1534 1560 0.0510716 
r246 1533 1556 0.02 
r247 1532 1735 1.17157 
r248 1530 1729 1.518 
r249 1739 1361 3 
r250 1630 1359 3 
r251 1359 1357 0.000888889 
r252 1705 1357 3 
r253 1353 1361 0.0005 
r254 1698 1353 3 
r255 1351 1735 3 
r256 1699 1351 3 
r257 1349 1739 1.3475 
r258 1530 1349 0.0446983 
r259 1537 1338 0.938734 
r260 1335 1337 0.143333 
r261 1532 1334 0.0385542 
r262 1332 1334 0.14506 
r263 1768 1328 0.192 
r264 1326 1768 0.192 
r265 1325 1326 0.342 
r266 1768 1325 0.192 
r267 1323 1768 0.192 
r268 1322 1323 0.342 
r269 1768 1322 0.192 
r270 1320 1768 0.192 
r271 1319 1320 0.342 
r272 1768 1319 0.192 
r273 1317 1768 0.192 
r274 1316 1624 0.02 
r275 1316 1328 1.214 
r276 1315 1338 0.04 
r277 1315 1317 0.243 
r278 1312 1337 0.0380952 
r279 1539 1312 5.74476 
r280 1768 1308 0.159 
r281 1306 1768 0.159 
r282 1305 1306 0.408 
r283 1768 1305 0.159 
r284 1303 1768 0.159 
r285 1302 1303 0.408 
r286 1768 1302 0.159 
r287 1300 1768 0.159 
r288 1299 1300 0.408 
r289 1768 1299 0.159 
r290 1297 1768 0.159 
r291 1296 1337 0.02 
r292 1296 1308 1.247 
r293 1295 1334 0.02 
r294 1295 1297 1.243 
r295 1294 1335 0.02 
r296 1293 1332 0.02 
r297 1293 1294 4.69271 
r298 1534 891 0.131104 
r299 1558 891 0.0051505 
r300 888 894 0.123079 
r301 888 1558 0.0948495 
r302 1536 886 0.0446983 
r303 894 886 0.2285 
r304 1533 871 0.131104 
r305 1558 871 0.0051505 
r306 868 874 0.123079 
r307 868 1558 0.0948495 
r308 1535 866 0.0446983 
r309 874 866 0.2285 
r310 618 1884 0.81 
r311 1881 618 0.202 
r312 618 1923 0.375 
r313 612 615 0.0378378 
r314 612 1921 2 
r315 605 608 0.0351351 
r316 605 1919 2 
r317 597 600 1.315 
r318 597 1918 1.2 
r319 589 592 1.65 
r320 589 1917 2 
r321 581 584 0.01 
r322 581 1916 1.2 
r323 573 576 0.0806648 
r324 573 1915 0.272727 
r325 570 1913 3 
r326 562 565 0.0806648 
r327 562 1912 0.272727 
r328 559 1910 0.428571 
r329 547 1923 0.00119641 
r330 1921 547 0.0292722 
r331 1955 547 0.428571 
r332 543 544 1.10275 
r333 540 543 0.631373 
r334 540 1920 0.272727 
r335 536 537 1.07751 
r336 533 536 0.629665 
r337 533 1914 0.272727 
r338 530 1951 0.202 
r339 1947 530 0.022 
r340 530 1940 0.131579 
r341 529 1912 0.0462612 
r342 1910 529 0.00175474 
r343 1951 529 0.428571 
r344 511 559 0.426 
r345 510 570 1.253 
r346 510 511 0.0446983 
r347 1873 508 0.113882 
r348 508 509 0.0432941 
r349 1872 505 0.122532 
r350 501 514 0.0667074 
r351 501 502 1.04 
r352 498 514 0.0106594 
r353 498 499 0.140784 
r354 495 513 0.0149881 
r355 495 1768 1.334 
r356 490 513 0.0313149 
r357 490 491 2.3875 
r358 488 512 0.0677496 
r359 488 1768 1.93366 
r360 487 514 0.0667074 
r361 487 1768 1.59122 
r362 484 512 0.0110999 
r363 484 485 0.137033 
r364 483 512 0.0677496 
r365 481 513 0.0149881 
r366 481 482 1.135 
r367 478 508 0.02 
r368 475 502 0.02 
r369 474 1870 2.276 
r370 473 1768 0.2455 
r371 472 570 2.7265 
r372 471 483 0.965854 
r373 469 559 1.518 
r374 273 275 0.138165 
r375 268 270 0.155789 
r376 266 505 0.02 
r377 266 478 4.33826 
r378 265 505 0.02 
r379 475 265 0.763478 
r380 275 261 0.0404706 
r381 509 261 5.75048 
r382 259 275 0.02 
r383 258 259 3.47535 
r384 257 258 0.04 
r385 256 270 0.02 
r386 256 257 1.10182 
r387 255 270 0.02 
r388 254 471 0.0447708 
r389 254 255 0.798182 
r390 253 273 0.02 
r391 252 253 4.25222 
r392 252 251 0.0399503 
r393 250 268 0.02 
r394 250 251 0.673 
r395 1871 184 1.281 
r396 537 183 2 
r397 485 183 2 
r398 536 180 3 
r399 482 180 3 
r400 184 176 3 
r401 543 176 3 
r402 499 174 2 
r403 544 174 2 
r404 473 167 0.0354455 
r405 165 184 0.995 
r406 165 167 0.0354455 
r407 472 164 0.0354455 
r408 474 164 0.0354455 
r409 163 482 1.233 
r410 469 163 0.0446983 
r411 161 167 0.00751643 
r412 160 164 0.00751643 
r413 160 161 1.84047 
.ends

.subckt PM_PC3X12%VDD 219 226 233 240 247 254 261 369 374 379 384 393 531 538
+ 541 549 556 726 732 740 776 862 880 886 892 898 909
c0 906 0 1.90204f
c1 892 0 91.6681f
c2 891 0 0.368411f
c3 890 0 89.1137f
c4 889 0 1.13465f
c5 879 0 66.4664f
c6 858 0 0.0176789f
c7 857 0 0.0693137f
c8 856 0 1.21543f
c9 855 0 0.146135f
c10 852 0 1.50177f
c11 846 0 15.5831f
c12 842 0 7.13677f
c13 841 0 1.32164f
c14 780 0 1.60315f
c15 776 0 0.0670622f
c16 772 0 2.96386f
c17 770 0 3.09646f
c18 761 0 4.68887f
c19 758 0 3.47198f
c20 756 0 22.4184f
c21 754 0 7.58469f
c22 740 0 1.44517f
c23 738 0 0.0693347f
c24 736 0 0.057515f
c25 732 0 4.70885f
c26 727 0 4.1215f
c27 726 0 0.0385485f
c28 725 0 5.75966f
c29 724 0 5.46588f
c30 723 0 1.2041f
c31 722 0 0.71832f
c32 720 0 0.747053f
c33 675 0 0.0996392f
c34 674 0 0.102823f
c35 665 0 7.8842f
c36 628 0 14.3449f
c37 602 0 0.851696f
c38 596 0 0.52117f
c39 556 0 16.7608f
c40 541 0 1.96766f
c41 531 0 0.0234394f
c42 522 0 14.4095f
c43 514 0 4.8531f
c44 472 0 0.0540036f
c45 455 0 11.6612f
c46 450 0 3.4055f
c47 447 0 0.164732f
c48 445 0 0.410132f
c49 438 0 2.84859f
c50 436 0 0.0476776f
c51 429 0 2.70149f
c52 426 0 11.4939f
c53 421 0 3.66043f
c54 418 0 2.15993f
c55 410 0 2.08346f
c56 408 0 1.44898f
c57 405 0 1.95308f
c58 404 0 1.77468f
c59 403 0 0.320202f
c60 401 0 0.00844315f
c61 400 0 0.00844315f
c62 398 0 0.00844315f
c63 396 0 0.0629591f
c64 395 0 0.128959f
c65 392 0 0.0731685f
c66 391 0 0.194656f
c67 390 0 0.133737f
c68 388 0 0.0733053f
c69 383 0 0.288399f
c70 379 0 0.782774f
c71 374 0 1.27879f
c72 369 0 0.789561f
c73 366 0 0.053963f
c74 364 0 0.211139f
c75 359 0 5.5287f
c76 357 0 0.11603f
c77 226 0 0.00556728f
c78 208 0 16.652f
c79 206 0 29.727f
c80 204 0 29.3635f
c81 202 0 29.4354f
c82 200 0 29.3591f
c83 198 0 29.3203f
c84 196 0 16.8806f
c85 173 0 2.56565f
c86 10 0 0.0779366f
c87 9 0 4.79999f
c88 8 0 0.0961499f
c89 6 0 0.571232f
r90 909 910 0.1255 
r91 906 909 0.0155 
r92 898 900 0.1255 
r93 891 892 0.0764778 
r94 890 891 0.00139086 
r95 889 890 0.0823181 
r96 886 889 0.000695428 
r97 880 883 0.000400729 
r98 880 882 0.0244983 
r99 878 879 0.00685084 
r100 877 878 0.0425501 
r101 872 873 0.0257923 
r102 871 872 0.126193 
r103 870 871 0.000218579 
r104 869 870 7.28597e-05 
r105 868 869 0.232204 
r106 867 868 0.0248087 
r107 866 867 0.00641166 
r108 858 859 0.0334303 
r109 855 856 0.0335268 
r110 853 857 0.0576508 
r111 853 854 0.0338756 
r112 852 855 0.0477027 
r113 859 852 0.799375 
r114 849 858 0.01 
r115 848 857 0.00647627 
r116 842 857 0.0576508 
r117 841 856 0.0335268 
r118 783 877 0.5 
r119 780 878 0.125 
r120 770 883 0.4 
r121 761 890 0.0925926 
r122 761 904 0.0705 
r123 761 891 0.0925926 
r124 760 877 0.00845173 
r125 875 760 0.0070674 
r126 904 760 0.6 
r127 892 758 0.00584031 
r128 906 758 0.0925926 
r129 883 756 0.0217122 
r130 910 756 0.6 
r131 754 776 0.0752896 
r132 752 754 0.125 
r133 879 752 0.104382 
r134 749 772 0.5 
r135 749 752 0.0401241 
r136 745 856 0.00909727 
r137 744 854 0.00880368 
r138 744 783 0.936 
r139 740 743 0.0107143 
r140 740 739 0.0150161 
r141 739 780 0.0257143 
r142 737 738 0.00909727 
r143 735 772 0.936 
r144 735 736 0.00880368 
r145 743 732 0.023166 
r146 730 738 0.0335268 
r147 841 730 1.94963 
r148 728 736 0.0338756 
r149 727 854 0.0338756 
r150 727 728 1.974 
r151 737 726 1.263 
r152 772 726 0.449 
r153 745 726 1.263 
r154 783 726 0.449 
r155 725 738 0.0335268 
r156 725 726 0.818765 
r157 724 736 0.0338756 
r158 722 723 0.0739054 
r159 722 732 0.151351 
r160 720 776 0.151351 
r161 717 770 1.84 
r162 716 770 0.808 
r163 675 726 2.97136 
r164 717 675 0.0447005 
r165 674 724 3.8375 
r166 716 674 0.0446983 
r167 667 749 0.0323079 
r168 665 667 0.102485 
r169 665 882 0.266413 
r170 656 723 0.429217 
r171 720 656 0.0739054 
r172 644 645 0.324486 
r173 643 644 0.324486 
r174 642 643 0.324486 
r175 641 642 1.29794 
r176 636 637 0.324231 
r177 635 636 0.340769 
r178 634 635 0.340769 
r179 633 634 0.340769 
r180 632 633 0.340731 
r181 628 630 0.0754231 
r182 622 623 0.304151 
r183 621 622 0.33434 
r184 620 621 0.33434 
r185 619 620 0.33434 
r186 618 619 0.334302 
r187 849 602 0.3225 
r188 848 602 0.322 
r189 602 875 0.461538 
r190 596 647 1.5 
r191 596 600 0.0897196 
r192 594 647 0.357383 
r193 645 594 0.324486 
r194 592 594 2 
r195 586 645 1.2 
r196 579 644 2 
r197 573 643 1.5 
r198 566 642 3 
r199 558 560 0.613084 
r200 558 641 0.24 
r201 556 566 0.0628037 
r202 556 579 0.0493458 
r203 556 560 0.371664 
r204 556 573 0.0096063 
r205 556 586 0.00224299 
r206 556 592 0.0358879 
r207 556 558 0.0493458 
r208 552 846 0.336 
r209 546 549 1.525 
r210 546 871 0.666667 
r211 538 541 1.9475 
r212 535 538 0.0025 
r213 535 870 0.75 
r214 528 531 1.535 
r215 528 869 0.666667 
r216 556 525 2.469 
r217 525 628 2 
r218 522 616 0.0758868 
r219 520 522 2 
r220 520 556 2.456 
r221 514 612 1.5 
r222 514 518 0.0897196 
r223 512 612 0.360755 
r224 510 512 2 
r225 556 510 0.0358879 
r226 506 512 0.327547 
r227 504 506 1.2 
r228 556 504 0.00224299 
r229 499 506 0.327547 
r230 497 499 2 
r231 556 497 0.0493458 
r232 492 499 0.327547 
r233 490 492 1.5 
r234 556 490 0.0096063 
r235 485 492 0.327547 
r236 606 485 1.12302 
r237 483 485 3 
r238 556 483 0.0628037 
r239 556 478 0.371664 
r240 475 606 0.26087 
r241 475 478 0.427664 
r242 556 475 0.234766 
r243 472 866 0.461538 
r244 458 875 0.00123862 
r245 873 458 0.0282332 
r246 904 458 0.6 
r247 455 641 0.92 
r248 453 455 0.272727 
r249 450 453 1.22579 
r250 450 873 0.1875 
r251 552 447 6 
r252 445 447 6 
r253 461 445 1.85189 
r254 442 632 0.235231 
r255 630 442 0.0651538 
r256 440 442 0.153846 
r257 438 440 0.642885 
r258 438 872 0.133333 
r259 436 461 0.0783225 
r260 436 438 0.139808 
r261 434 618 0.242491 
r262 616 434 0.0616604 
r263 432 434 0.153846 
r264 429 432 0.630755 
r265 429 868 0.133333 
r266 426 606 0.986038 
r267 424 426 0.333333 
r268 421 424 1.35509 
r269 421 867 0.2 
r270 418 898 0.0155 
r271 418 889 0.0925926 
r272 417 866 0.0213479 
r273 862 417 0.00415301 
r274 900 417 0.6 
r275 413 846 6 
r276 408 410 6 
r277 408 413 2.19718 
r278 407 410 3.15042 
r279 405 549 2.375 
r280 404 531 2.375 
r281 399 472 0.0475949 
r282 399 400 0.015165 
r283 397 472 0.158987 
r284 397 398 0.015165 
r285 395 407 0.0449058 
r286 395 396 0.153651 
r287 392 403 0.0664609 
r288 392 393 0.102703 
r289 391 396 0.0664609 
r290 391 393 0.0443243 
r291 390 405 0.0446983 
r292 389 404 0.0446983 
r293 389 390 0.51 
r294 403 388 0.598095 
r295 383 388 0.066959 
r296 383 384 0.0443243 
r297 378 401 0.0309988 
r298 378 379 2.74875 
r299 373 400 0.0309988 
r300 373 374 2.74875 
r301 368 398 0.0309988 
r302 368 369 2.74875 
r303 367 401 0.015165 
r304 366 401 0.015165 
r305 365 400 0.015165 
r306 365 366 0.206582 
r307 364 398 0.015165 
r308 360 556 1.07664 
r309 359 360 0.045921 
r310 359 525 0.322 
r311 357 520 0.325 
r312 356 357 0.045921 
r313 356 556 1.07664 
r314 623 259 1.5 
r315 259 261 0.765343 
r316 622 252 1.5 
r317 252 254 0.46673 
r318 621 245 1.5 
r319 245 247 0.479431 
r320 620 238 1.5 
r321 238 240 0.479431 
r322 619 231 1.5 
r323 231 233 0.479431 
r324 618 224 1.5 
r325 224 226 0.479431 
r326 616 217 1.5 
r327 217 219 0.765343 
r328 219 208 0.737863 
r329 630 208 1.5 
r330 226 206 0.453839 
r331 632 206 1 
r332 233 204 0.453839 
r333 633 204 1.5 
r334 240 202 0.453839 
r335 634 202 1.5 
r336 247 200 0.453839 
r337 635 200 1.5 
r338 254 198 0.46654 
r339 636 198 1.5 
r340 261 196 0.737863 
r341 637 196 1.5 
r342 174 518 0.02 
r343 174 556 2.504 
r344 173 600 0.02 
r345 173 556 2.44889 
r346 10 726 3.33531 
r347 9 858 0.02 
r348 9 726 2.61531 
r349 842 8 6.025 
r350 6 367 0.333165 
r351 6 10 0.0447074 
r352 5 364 0.460759 
r353 5 8 0.0447006 
.ends

.subckt PM_PC3X12%VDDO 1278 1285 1292 1299 1306 1313 1320 1335 1451 1681 1686
+ 1695 1701 1705 1710 1713 1718 1725 1729 1743 1746 1758 1768
c0 1772 0 8.64799f
c1 1765 0 0.635928f
c2 1761 0 0.716739f
c3 1758 0 1.75769f
c4 1757 0 4.97867f
c5 1756 0 21.2925f
c6 1755 0 19.4315f
c7 1754 0 2.83167f
c8 1753 0 0.142193f
c9 1751 0 39.1595f
c10 1749 0 39.0862f
c11 1743 0 1.46187f
c12 1742 0 4.52547f
c13 1741 0 19.2972f
c14 1740 0 15.8899f
c15 1739 0 2.40269f
c16 1737 0 0.00484763f
c17 1735 0 0.749962f
c18 1733 0 30.1055f
c19 1732 0 33.2275f
c20 1723 0 0.84639f
c21 1721 0 11.7095f
c22 1718 0 1.395f
c23 1717 0 1.58659f
c24 1710 0 1.23979f
c25 1709 0 1.22437f
c26 1701 0 18.5741f
c27 1700 0 0.101378f
c28 1699 0 22.3027f
c29 1698 0 0.205902f
c30 1691 0 26.9486f
c31 1685 0 3.69724f
c32 1670 0 25.3541f
c33 1567 0 10.1871f
c34 1538 0 3.71224f
c35 1530 0 31.5164f
c36 1510 0 1.61523f
c37 1508 0 6.46207f
c38 1506 0 15.6049f
c39 1500 0 15.2743f
c40 1494 0 0.862191f
c41 1492 0 48.7762f
c42 1475 0 0.718369f
c43 1473 0 0.267637f
c44 1456 0 5.76423f
c45 1454 0 0.0999664f
c46 1450 0 0.374545f
c47 1449 0 0.0835179f
c48 1350 0 11.4095f
c49 1349 0 0.271006f
c50 1347 0 0.246114f
c51 1345 0 0.156449f
c52 1325 0 7.04152f
c53 1257 0 7.37435f
c54 1246 0 11.914f
c55 1244 0 19.2906f
c56 1242 0 19.2906f
c57 1240 0 19.3055f
c58 1238 0 19.2906f
c59 1236 0 19.2906f
c60 1234 0 11.7828f
c61 1210 0 0.114758f
c62 1209 0 4.34323f
c63 1206 0 0.103657f
c64 1205 0 5.77745f
c65 422 0 12.541f
c66 420 0 0.0999272f
c67 379 0 1.57907f
c68 377 0 1.33116f
c69 372 0 0.197566f
c70 370 0 0.794915f
c71 341 0 0.0835179f
r72 1772 1773 0.887193 
r73 1768 1769 0.0825 
r74 1765 1768 0.2685 
r75 1757 1758 0.00164315 
r76 1756 1757 0.0253942 
r77 1755 1756 0.0714689 
r78 1754 1755 0.0682324 
r79 1753 1754 0.0236183 
r80 1751 1753 0.00627386 
r81 1751 1773 0.08 
r82 1749 1751 0.112465 
r83 1746 1749 0.110473 
r84 1742 1743 0.00195368 
r85 1741 1742 0.030856 
r86 1740 1741 0.0903122 
r87 1739 1740 0.0792145 
r88 1738 1739 0.0283787 
r89 1737 1738 0.0029003 
r90 1735 1737 0.00515609 
r91 1735 1772 0.08 
r92 1733 1735 0.0152266 
r93 1732 1733 0.117503 
r94 1729 1732 0.137644 
r95 1723 1725 0.2685 
r96 1722 1737 0.02 
r97 1721 1733 0.02 
r98 1755 1717 0.00227273 
r99 1717 1718 0.0468133 
r100 1740 1709 0.0025 
r101 1709 1710 0.0586002 
r102 1700 1701 0.43426 
r103 1699 1700 0.00789762 
r104 1698 1699 0.467422 
r105 1695 1698 0.00394881 
r106 1694 1772 0.686648 