* File: pc3b04d.dist.sp.pex
* Created: Sun Jul  4 12:16:32 2010
* Program "Calibre xRC"
* Version "v2008.4_19.14"
* Nominal Temperature: 27C
* Circuit Temperature: 27C
* 
.subckt PM_PC3B04D%net_m20_VSSO_res 23 104 108 112 116 120
c0 120 0 0.519409f
c1 116 0 0.519409f
c2 112 0 0.519409f
c3 108 0 0.733303f
c4 104 0 0.73297f
c5 101 0 0.458473f
c6 95 0 0.0621542f
c7 61 0 0.0631005f
c8 47 0 0.243065f
c9 46 0 0.24171f
c10 45 0 0.158208f
c11 44 0 0.17083f
c12 43 0 0.165042f
c13 23 0 0.561556f
c14 21 0 0.0477817f
c15 20 0 0.371384f
r16 96 101 0.0552941 
r17 95 96 0.02 
r18 94 95 0.129412 
r19 62 104 85 
r20 60 120 85 
r21 60 61 0.93595 
r22 55 116 85 
r23 54 55 1.55172 
r24 53 101 6.90667 
r25 52 54 5.17241 
r26 52 53 1.55172 
r27 51 112 85 
r28 50 52 11.1034 
r29 50 51 1.55172 
r30 49 108 85 
r31 48 61 2.23066 
r32 47 62 3.37824 
r33 47 48 10.8571 
r34 46 54 2.89655 
r35 45 61 2.23066 
r36 45 46 10.8571 
r37 44 49 3.37824 
r38 43 50 2.89655 
r39 43 44 10.8571 
r40 22 23 0.18 
r41 94 21 0.0446983 
r42 20 22 0.0446983 
r43 20 21 0.521176 
.ends

.subckt PM_PC3B04D%net_m72_VDDO_res 8 39
c0 39 0 2.10537f
c1 34 0 1.3175f
c2 18 0 0.0808186f
c3 15 0 0.169574f
c4 10 0 0.0679085f
c5 9 0 0.731359f
c6 8 0 0.36522f
c7 6 0 0.182983f
r8 36 39 3.87662 
r9 17 34 43.5 
r10 16 34 49.5 
r11 18 15 16.5 
r12 11 18 4.13452 
r13 10 16 3.35237 
r14 9 15 3.35237 
r15 9 10 56.025 
r16 11 8 6.95493 
r17 7 36 1.62175 
r18 7 8 5.625 
r19 6 17 3.35237 
r20 6 8 5.625 
.ends

.subckt PM_PC3B04D%U28_padr 12 60 66 74 136 138 140 185
c0 268 0 16.1815f
c1 263 0 9.28721f
c2 256 0 1.97955f
c3 252 0 15.9636f
c4 244 0 6.63629f
c5 241 0 0.167532f
c6 238 0 5.63942f
c7 236 0 0.516512f
c8 234 0 0.0693806f
c9 233 0 0.207306f
c10 232 0 0.410871f
c11 227 0 0.690753f
c12 221 0 1.02209f
c13 215 0 1.73033f
c14 206 0 1.83121f
c15 200 0 0.656732f
c16 197 0 0.420552f
c17 192 0 0.0771366f
c18 191 0 0.489946f
c19 188 0 0.668927f
c20 186 0 0.703768f
c21 185 0 5.5788e-21
c22 162 0 0.093022f
c23 156 0 0.0843457f
c24 148 0 16.1237f
c25 140 0 1.09106f
c26 138 0 0.567391f
c27 136 0 1.02291f
c28 106 0 0.394633f
c29 103 0 0.386024f
c30 102 0 0.370735f
c31 100 0 0.40312f
c32 96 0 0.421448f
c33 93 0 0.438674f
c34 90 0 0.226943f
c35 89 0 0.0193661f
c36 88 0 0.0834583f
c37 86 0 0.0580109f
c38 85 0 0.0700572f
c39 84 0 0.0831665f
c40 80 0 0.30153f
c41 78 0 0.0331349f
c42 77 0 0.0954138f
c43 74 0 1.27015f
c44 71 0 0.0712234f
c45 70 0 0.377719f
c46 66 0 2.39968f
c47 64 0 0.512434f
c48 60 0 2.3275f
c49 19 0 0.183911f
c50 18 0 0.0476323f
c51 17 0 0.0522162f
c52 16 0 0.0994236f
c53 12 0 1.07044f
r54 268 254 0.172857 
r55 252 254 6 
r56 248 250 3.984 
r57 244 268 2 
r58 242 244 10.3129 
r59 263 238 0.185079 
r60 236 238 1.2 
r61 235 236 0.482857 
r62 233 235 0.0446983 
r63 233 234 0.125714 
r64 232 234 0.0446983 
r65 227 256 6 
r66 225 241 0.15871 
r67 225 227 0.867097 
r68 223 252 1.73733 
r69 250 223 9.256 
r70 221 223 6 
r71 241 221 1.56387 
r72 199 256 2.38452 
r73 191 199 0.0446983 
r74 191 192 0.619355 
r75 188 192 0.0456388 
r76 187 197 0.0200258 
r77 187 188 0.791 
r78 186 263 0.18836 
r79 185 197 0.00412903 
r80 147 148 0.434667 
r81 128 140 168.333 
r82 128 162 3.92502 
r83 123 138 51.6667 
r84 122 123 1.66667 
r85 115 136 168.333 
r86 156 115 3.6393 
r87 215 110 6 
r88 107 218 0.8025 
r89 215 107 2.8475 
r90 107 148 6 
r91 106 162 0.77 
r92 218 106 6 
r93 103 213 1.2525 
r94 103 250 6 
r95 102 156 0.7825 
r96 213 102 6 
r97 206 100 6 
r98 97 209 0.8 
r99 206 97 2.88 
r100 97 147 6 
r101 209 96 6 
r102 93 204 0.482667 
r103 93 248 6 
r104 92 147 3.75467 
r105 204 92 6 
r106 90 110 0.05 
r107 86 96 0.642857 
r108 85 100 0.642857 
r109 84 90 0.0446983 
r110 83 89 0.0338756 
r111 83 84 0.1875 
r112 80 122 1.16667 
r113 79 89 0.0338756 
r114 79 80 0.245 
r115 77 89 0.00880368 
r116 77 78 0.25 
r117 73 78 0.0446983 
r118 73 74 1.2575 
r119 72 74 1.3775 
r120 70 72 0.0447588 
r121 70 71 0.544 
r122 88 66 2.375 
r123 64 88 0.12 
r124 63 86 0.0449572 
r125 63 64 0.8475 
r126 59 85 0.0449572 
r127 59 60 1.4975 
r128 58 71 0.0447588 
r129 58 60 1.3775 
r130 200 21 0.30381 
r131 19 21 3 
r132 18 19 0.109474 
r133 242 17 0.0446983 
r134 18 16 0.0456991 
r135 16 17 0.147143 
r136 13 232 0.407619 
r137 13 200 0.0446983 
r138 186 12 0.0147368 
.ends

.subckt PM_PC3B04D%VSSO 167 330 493 592 617 621 671 953 957 964 993 1000 1012
+ 1024 1026 1031 1036 1042 1048 1054 1060 1069 1075 1081 1087 1093 1102 1108 1114
+ 1121 1127 1139 1195 1201 1205 1211
c0 1211 0 31.9817f
c1 1198 0 1.98471f
c2 1195 0 47.1604f
c3 1174 0 7.95245f
c4 1172 0 6.97302f
c5 1166 0 6.97097f
c6 1161 0 6.97244f
c7 1155 0 6.97339f
c8 1150 0 6.97548f
c9 1139 0 7.53279e-19
c10 1134 0 8.95235f
c11 1127 0 0.342408f
c12 1121 0 0.339667f
c13 1114 0 1.36597f
c14 1108 0 1.40025f
c15 1093 0 1.35721f
c16 1087 0 1.35624f
c17 1081 0 1.34294f
c18 1075 0 1.38443f
c19 1060 0 1.20335f
c20 1054 0 0.840215f
c21 1048 0 1.37894f
c22 1042 0 2.02532f
c23 1036 0 1.55603f
c24 1031 0 1.69028f
c25 1029 0 2.28529f
c26 1024 0 8.25608e-19
c27 1022 0 8.96457f
c28 1010 0 7.90572f
c29 1006 0 1.27875f
c30 996 0 1.65699f
c31 993 0 58.4727f
c32 960 0 1.3481f
c33 957 0 10.6731f
c34 945 0 0.112241f
c35 944 0 0.0408562f
c36 943 0 1.549f
c37 941 0 0.0510217f
c38 940 0 0.330224f
c39 939 0 0.675001f
c40 934 0 5.49071f
c41 925 0 0.708327f
c42 923 0 3.26143f
c43 921 0 0.383003f
c44 920 0 0.713156f
c45 919 0 0.311353f
c46 918 0 3.26731f
c47 917 0 0.383249f
c48 916 0 0.0465497f
c49 915 0 0.185024f
c50 914 0 0.322367f
c51 884 0 0.122915f
c52 883 0 9.05999f
c53 853 0 0.284424f
c54 849 0 7.03694f
c55 845 0 0.146306f
c56 671 0 0.605971f
c57 642 0 0.906122f
c58 640 0 0.101596f
c59 638 0 0.0540025f
c60 636 0 1.41486f
c61 635 0 0.0319195f
c62 634 0 0.346471f
c63 621 0 0.784212f
c64 620 0 0.108804f
c65 617 0 0.556657f
c66 613 0 0.0481914f
c67 612 0 0.47589f
c68 592 0 0.114597f
c69 585 0 0.121666f
c70 506 0 6.69176f
c71 408 0 14.0342f
c72 358 0 14.0375f
c73 245 0 14.0375f
c74 195 0 14.036f
c75 32 0 14.0394f
c76 10 0 0.146306f
r77 1209 1211 0.00282778 
r78 1208 1209 0.355444 
r79 1205 1208 0.00283333 
r80 1200 1202 0.0106667 
r81 1200 1201 0.02 
r82 1198 1200 0.0143333 
r83 1192 1193 0.125134 
r84 1191 1192 0.0410695 
r85 1190 1191 0.0396791 
r86 1189 1190 0.043262 
r87 1188 1189 0.0347594 
r88 1187 1188 0.0225668 
r89 1186 1187 0.067861 
r90 1185 1186 0.0253476 
r91 1184 1185 0.0224599 
r92 1183 1184 0.0475936 
r93 1182 1183 0.0226738 
r94 1181 1182 0.0233155 
r95 1180 1181 0.0203209 
r96 1179 1180 0.0213904 
r97 1178 1198 0.02 
r98 1178 1179 0.0720856 
r99 1143 1144 0.0140639 
r100 1138 1139 0.0126606 
r101 1174 1136 0.0113761 
r102 1134 1136 0.0638298 
r103 1131 1193 2 
r104 1127 1131 0.000380952 
r105 1121 1192 2 
r106 1117 1191 0.6 
r107 1114 1117 0.285 
r108 1111 1190 0.6 
r109 1108 1111 0.32 
r110 1096 1189 0.6 
r111 1093 1096 0.36 
r112 1090 1188 0.6 
r113 1087 1090 0.37 
r114 1084 1186 0.6 
r115 1081 1084 0.3225 
r116 1078 1185 0.6 
r117 1075 1078 0.325 
r118 1063 1184 0.6 
r119 1060 1063 0.3425 
r120 1057 1183 0.75 
r121 1054 1057 0.04 
r122 1051 1182 0.6 
r123 1048 1051 0.365 
r124 1045 1181 0.6 
r125 1042 1045 0.194286 
r126 1039 1180 0.6 
r127 1036 1039 0.3175 
r128 1033 1179 0.666667 
r129 1031 1033 0.96 
r130 1024 1138 0.013211 
r131 1134 1024 0.000917431 
r132 1022 1024 0.000913242 
r133 1022 1143 0.0638298 
r134 1011 1012 0.02 
r135 1010 1143 0.0113242 
r136 1008 1010 0.0327869 
r137 1008 1011 0.0166784 
r138 1006 1008 0.029258 
r139 1003 1209 0.357143 
r140 1000 1003 0.21 
r141 998 1195 0.00544385 
r142 1193 998 0.0345455 
r143 996 998 1 
r144 996 1000 0.445 
r145 991 993 0.00612761 
r146 991 1174 0.0327869 
r147 1168 989 0.00301483 
r148 989 1172 0.00301741 
r149 987 989 0.0266667 
r150 987 991 0.0287785 
r151 1102 986 0.130435 
r152 986 1166 0.00301741 
r153 1163 986 0.00301741 
r154 984 986 0.0266667 
r155 984 987 0.0242129 
r156 1157 983 0.00301483 
r157 983 1161 0.00301741 
r158 981 983 0.0266667 
r159 981 984 0.0242129 
r160 980 981 0.000615582 
r161 1069 979 0.130435 
r162 979 1155 0.00301741 
r163 1152 979 0.00301741 
r164 977 979 0.0266667 
r165 977 980 0.0235973 
r166 1146 976 0.00301483 
r167 976 1150 0.00301741 
r168 974 976 0.0266667 
r169 974 977 0.0242129 
r170 973 1006 0.02 
r171 973 974 0.0277012 
r172 1011 970 0.429445 
r173 967 1208 0.357143 
r174 964 967 0.21 
r175 962 1204 0.144409 
r176 1202 962 0.034 
r177 960 962 1 
r178 960 964 0.445 
r179 944 945 0.1275 
r180 943 944 0.0448391 
r181 942 943 2.75862 
r182 940 942 0.044715 
r183 940 941 0.466667 
r184 939 941 0.0450432 
r185 1204 939 1.29371 
r186 932 934 6.4 
r187 932 1029 6 
r188 929 932 0.784211 
r189 927 1139 0.230275 
r190 925 1134 0.210275 
r191 924 1029 3.40429 
r192 922 1026 0.229041 
r193 922 923 0.0863581 
r194 920 1022 0.209132 
r195 920 921 0.0863581 
r196 927 918 0.0861375 
r197 918 919 0.132033 
r198 925 917 0.0861375 
r199 915 924 0.0446983 
r200 915 916 0.311429 
r201 914 916 0.0449572 
r202 884 1024 0.128 
r203 883 919 0.0473573 
r204 883 1024 0.126 
r205 853 884 0.0473573 
r206 923 853 0.132033 
r207 849 1024 0.126 
r208 848 1031 1.1475 
r209 846 1024 0.128 
r210 845 846 0.0473573 
r211 845 921 0.250407 
r212 934 644 6 
r213 1187 642 0.75 
r214 945 640 3 
r215 638 671 0.0494737 
r216 929 638 2 
r217 635 642 0.437895 
r218 635 636 0.0407126 
r219 848 634 0.0338756 
r220 620 644 0.0413535 
r221 620 621 1.14783 
r222 616 617 0.221176 
r223 612 616 0.0446983 
r224 612 613 0.668235 
r225 610 613 0.0446983 
r226 610 636 2.01647 
r227 591 634 0.00880368 
r228 591 592 0.1375 
r229 585 914 0.565 
r230 585 640 0.0265396 
r231 509 957 0.0419737 
r232 953 509 0.0413851 
r233 980 509 0.00128205 
r234 970 506 2.21804 
r235 506 1202 0.6 
r236 989 493 0.130435 
r237 1102 408 0.00313778 
r238 1166 408 0.0652174 
r239 493 398 0.0031351 
r240 1168 398 0.0652174 
r241 358 493 0.00314046 
r242 1172 358 0.0652174 
r243 1136 347 0.0141284 
r244 347 1138 0.0652174 
r245 983 330 0.130435 
r246 1069 245 0.00313778 
r247 1155 245 0.0652174 
r248 330 235 0.0031351 
r249 1157 235 0.0652174 
r250 195 330 0.00314046 
r251 1161 195 0.0652174 
r252 185 1102 0.00313778 
r253 1163 185 0.0652174 
r254 976 167 0.130435 
r255 82 1026 0.0126027 
r256 1024 82 0.0131507 
r257 1144 82 0.0652174 
r258 167 72 0.0031351 
r259 1146 72 0.0652174 
r260 32 167 0.00314046 
r261 1150 32 0.0652174 
r262 22 1069 0.00313778 
r263 1152 22 0.0652174 
r264 10 917 0.250407 
r265 10 849 0.0473573 
.ends

.subckt PM_PC3B04D%VSS 660 827 863 885 909 914 927 929 934
c0 934 0 92.2188f
c1 927 0 56.9628f
c2 912 0 2.37329f
c3 909 0 0.00368951f
c4 906 0 1.24367f
c5 893 0 1.21678f
c6 881 0 1.88726f
c7 874 0 15.7965f
c8 860 0 1.45971f
c9 840 0 25.3075f
c10 838 0 0.0842555f
c11 837 0 0.0657505f
c12 836 0 7.79677f
c13 834 0 0.269279f
c14 831 0 0.0372194f
c15 827 0 4.20751f
c16 824 0 0.198007f
c17 822 0 0.849344f
c18 819 0 10.3949f
c19 812 0 8.71613f
c20 809 0 0.253612f
c21 808 0 0.100669f
c22 807 0 1.98808f
c23 701 0 2.24074f
c24 697 0 2.48218f
c25 692 0 1.88729f
c26 690 0 0.255511f
c27 688 0 0.276497f
c28 685 0 26.6169f
c29 680 0 0.814991f
c30 679 0 6.34069f
c31 673 0 2.0393f
c32 667 0 0.137389f
c33 666 0 2.49303f
c34 665 0 0.154374f
c35 664 0 2.26456f
c36 660 0 0.00279637f
c37 573 0 0.162892f
c38 571 0 0.72248f
c39 569 0 0.203897f
c40 544 0 2.94312f
c41 530 0 3.05957f
c42 528 0 0.031054f
c43 525 0 0.729043f
c44 524 0 7.74042f
c45 523 0 0.203811f
c46 508 0 5.70482f
c47 505 0 3.25515f
r48 929 932 0.000703354 
r49 925 927 0.00318245 
r50 924 925 0.00119641 
r51 923 924 0.0758524 
r52 922 923 0.0344168 
r53 921 922 0.167059 
r54 920 921 0.0871386 
r55 919 920 0.0414357 
r56 918 919 0.0141176 
r57 917 918 0.089651 
r58 914 917 0.00438684 
r59 912 925 0.461538 
r60 906 909 1.28857 
r61 906 923 1.5 
r62 900 921 0.0535714 
r63 898 919 1.5 
r64 898 900 1.612 
r65 893 896 0.045 
r66 893 920 0.666667 
r67 888 924 0.428571 
r68 885 888 0.189 
r69 883 934 0.000702051 
r70 932 883 0.0832563 
r71 881 883 0.131579 
r72 881 885 0.013 
r73 878 879 0.56934 
r74 877 878 1.12447 
r75 874 877 0.628223 
r76 874 922 0.3 
r77 866 917 0.428571 
r78 863 866 0.189 
r79 860 863 0.013 
r80 860 932 0.131579 
r81 839 854 0.02 
r82 839 840 0.9662 
r83 836 900 2.8715 
r84 836 837 0.0338756 
r85 840 833 1 
r86 833 834 0.0155975 
r87 831 898 1.283 
r88 830 838 0.0338756 
r89 829 837 0.0338756 
r90 827 904 2.59036 
r91 902 827 1.07807 
r92 826 838 0.00880368 
r93 826 827 0.958 
r94 825 837 0.00880368 
r95 825 827 0.986 
r96 834 824 0.0632911 
r97 824 822 0.0574488 
r98 819 838 0.0338756 
r99 818 831 0.0448201 
r100 815 912 1.518 
r101 814 912 0.426 
r102 812 904 1.08482 
r103 809 902 1.06072 
r104 808 827 3.1035 
r105 807 808 0.0448201 
r106 807 818 2.13041 
r107 819 703 0.733 
r108 827 703 1.93 
r109 701 842 3 
r110 902 697 1 
r111 842 692 0.24 
r112 878 692 1.5 
r113 703 690 3 
r114 877 690 3 
r115 688 904 3 
r116 879 688 3 
r117 685 871 1.1314 
r118 685 918 0.125 
r119 684 697 0.0075 
r120 854 684 0.056 
r121 871 684 0.24 
r122 680 830 0.5005 
r123 815 680 0.0446983 
r124 679 829 0.5005 
r125 814 679 0.0446983 
r126 678 701 0.830244 
r127 677 701 0.573659 
r128 672 673 1.37048 
r129 667 678 0.0448242 
r130 667 668 0.678222 
r131 666 673 0.0447675 
r132 666 668 0.650667 
r133 665 677 0.0446983 
r134 664 672 0.0447067 
r135 664 665 1.45854 
r136 896 660 0.31875 
r137 572 573 0.147619 
r138 568 569 0.14988 
r139 812 568 0.0380723 
r140 565 567 0.143333 
r141 809 564 0.0385542 
r142 562 564 0.14506 
r143 827 561 0.159 
r144 544 827 0.159 
r145 543 573 0.02 
r146 543 561 1.247 
r147 542 569 0.02 
r148 542 544 1.243 
r149 827 541 0.192 
r150 539 827 0.192 
r151 538 539 0.342 
r152 827 538 0.192 
r153 536 827 0.192 
r154 535 536 0.342 
r155 827 535 0.192 
r156 533 827 0.192 
r157 532 533 0.342 
r158 827 532 0.192 
r159 530 827 0.192 
r160 529 572 0.02 
r161 529 541 1.214 
r162 528 571 0.04 
r163 528 530 0.243 
r164 526 568 0.02 
r165 526 571 0.938734 
r166 833 525 0.102486 
r167 524 572 0.0380952 
r168 524 525 4.80524 
r169 523 822 0.555238 
r170 523 567 0.0380952 
r171 827 519 0.159 
r172 517 827 0.159 
r173 516 517 0.408 
r174 827 516 0.159 
r175 514 827 0.159 
r176 513 514 0.408 
r177 827 513 0.159 
r178 511 827 0.159 
r179 510 511 0.408 
r180 827 510 0.159 
r181 508 827 0.159 
r182 507 567 0.02 
r183 507 519 1.247 
r184 506 564 0.02 
r185 506 508 1.243 
r186 505 565 0.02 
r187 504 562 0.02 
r188 504 505 4.69271 
.ends

.subckt PM_PC3B04D%U28_U42_r1 93 98 140 145 152
c0 234 0 0.100654f
c1 232 0 0.442963f
c2 227 0 0.442911f
c3 222 0 0.346018f
c4 218 0 2.824f
c5 213 0 0.149522f
c6 210 0 0.259978f
c7 209 0 0.481f
c8 207 0 0.243246f
c9 205 0 0.0831055f
c10 204 0 0.334018f
c11 201 0 6.43541f
c12 198 0 0.770282f
c13 194 0 1.49913f
c14 193 0 0.76349f
c15 186 0 3.2943f
c16 185 0 0.0777466f
c17 184 0 10.3327f
c18 182 0 0.472173f
c19 180 0 0.408756f
c20 177 0 0.140416f
c21 172 0 0.0742904f
c22 169 0 0.0630044f
c23 161 0 0.171308f
c24 153 0 0.534923f
c25 152 0 0.278026f
c26 148 0 0.607921f
c27 147 0 0.168259f
c28 145 0 3.04886f
c29 140 0 3.04886f
c30 108 0 0.971459f
c31 98 0 3.04886f
c32 97 0 0.167986f
c33 93 0 3.04886f
c34 92 0 0.16844f
r35 211 213 0.1472 
r36 209 213 0.02 
r37 208 209 0.747936 
r38 206 211 0.02 
r39 206 207 0.405333 
r40 204 207 0.0446983 
r41 204 205 0.314667 
r42 201 234 6 
r43 199 205 0.0446983 
r44 199 201 7.00667 
r45 197 232 0.000487805 
r46 229 197 0.055122 
r47 196 198 0.0668954 
r48 196 197 1.5 
r49 195 210 0.105278 
r50 194 198 0.0829785 
r51 194 195 1.43 
r52 193 210 0.0228035 
r53 192 227 0.00292683 
r54 224 192 0.0526829 
r55 191 193 0.0677143 
r56 191 192 1.5 
r57 188 222 3 
r58 186 210 0.105278 
r59 186 188 3.4 
r60 184 208 0.0482946 
r61 184 185 8.83231 
r62 180 182 6 
r63 179 185 0.0501405 
r64 179 180 0.594286 
r65 175 234 0.0490323 
r66 174 177 0.157419 
r67 174 175 0.02 
r68 173 182 0.577143 
r69 172 222 0.261 
r70 172 173 0.0465329 
r71 169 218 6 
r72 167 177 0.02 
r73 167 169 0.0490323 
r74 166 218 3.99613 
r75 165 166 0.026898 
r76 161 165 0.10143 
r77 161 152 0.106667 
r78 148 153 5.05882 
r79 147 153 5.05882 
r80 142 148 3.88985 
r81 142 145 183.96 
r82 137 147 3.88985 
r83 137 140 183.96 
r84 103 108 5.05882 
r85 102 108 5.05882 
r86 97 103 3.88985 
r87 97 98 183.96 
r88 92 102 3.88985 
r89 92 93 183.96 
r90 153 63 0.00142683 
r91 227 63 3 
r92 108 52 0.00133393 
r93 229 52 3 
r94 34 108 0.0278113 
r95 232 34 3 
r96 153 9 0.0277856 
r97 224 9 3 
.ends

.subckt PM_PC3B04D%net_m71_VDDO_res 7 33
c0 33 0 1.6539f
c1 29 0 0.144046f
c2 17 0 0.183366f
c3 16 0 0.795193f
c4 15 0 1.71629f
c5 14 0 0.0797456f
c6 10 0 0.0757108f
c7 9 0 0.112025f
c8 7 0 0.369121f
r9 16 33 2.05452 
r10 16 17 8.75861 
r11 15 29 66.7742 
r12 14 29 60.5806 
r13 11 15 3.35663 
r14 11 17 11.5758 
r15 10 14 3.35347 
r16 9 10 6.625 
r17 6 9 4.5965 
r18 6 7 4.56364 
.ends

.subckt PM_PC3B04D%VDDO 21 828 896 907 918 929 940 951 962 977 1216 1233 1236
+ 1245 1250 1257 1283 1346 1352 1660 1664 1667 1671 1679 1686 1693 1702 1712 1725
+ 1731 1737 1743 1749 1755 1761 1767 1812 1828 1831 1836
c0 1836 0 21.1296f
c1 1828 0 52.6603f
c2 1809 0 9.48766f
c3 1806 0 3.00295f
c4 1775 0 9.66548f
c5 1767 0 1.39365f
c6 1761 0 2.72268f
c7 1755 0 1.37591f
c8 1749 0 1.72366f
c9 1743 0 2.07585f
c10 1737 0 0.814691f
c11 1731 0 1.85163f
c12 1725 0 2.41406f
c13 1722 0 5.46063f
c14 1709 0 0.505491f
c15 1705 0 30.8782f
c16 1704 0 1.942f
c17 1702 0 65.24f
c18 1685 0 52.5778f
c19 1675 0 0.698991f
c20 1674 0 1.39698f
c21 1671 0 3.00838f
c22 1664 0 2.51519f
c23 1658 0 0.132328f
c24 1649 0 0.331825f
c25 1645 0 0.211998f
c26 1639 0 0.23548f
c27 1635 0 0.619014f
c28 1631 0 0.344781f
c29 1627 0 0.300079f
c30 1623 0 0.62042f
c31 1617 0 3.05392f
c32 1615 0 0.692708f
c33 1610 0 1.62924f
c34 1605 0 2.4529f
c35 1603 0 2.20997f
c36 1601 0 0.0918332f
c37 1600 0 0.0391075f
c38 1599 0 0.0453791f
c39 1598 0 0.666266f
c40 1595 0 0.229934f
c41 1556 0 9.76182f
c42 1547 0 0.886259f
c43 1370 0 3.49553f
c44 1352 0 0.0820252f
c45 1346 0 0.482554f
c46 1305 0 4.04659f
c47 1300 0 0.474075f
c48 1299 0 0.125713f
c49 1297 0 0.285411f
c50 1293 0 0.0321078f
c51 1291 0 8.46534f
c52 1290 0 3.41735f
c53 1285 0 1.0143f
c54 1282 0 0.0193183f
c55 1280 0 0.0208492f
c56 1279 0 5.83685f
c57 1277 0 0.192794f
c58 1267 0 0.0969917f
c59 1264 0 0.0596675f
c60 1263 0 3.19808f
c61 1262 0 1.12976f
c62 1257 0 1.44043f
c63 1254 0 0.451293f
c64 1250 0 1.37806f
c65 1236 0 0.336966f
c66 1233 0 0.671064f
c67 1227 0 0.0312283f
c68 1226 0 0.968758f
c69 1216 0 1.417f
c70 1124 0 3.54157f
c71 1089 0 5.3361f
c72 1074 0 1.29937f
c73 1070 0 0.64863f
c74 1066 0 8.851f
c75 1064 0 6.89048f
c76 1062 0 0.588747f
c77 1056 0 0.170971f
c78 1053 0 0.0533066f
c79 1051 0 0.10605f
c80 977 0 7.65864f
c81 969 0 7.25869f
c82 966 0 11.8819f
c83 955 0 19.7804f
c84 951 0 0.00989968f
c85 944 0 19.7809f
c86 940 0 0.00989968f
c87 933 0 19.8068f
c88 929 0 0.00989968f
c89 922 0 19.6137f
c90 918 0 0.0231487f
c91 911 0 19.7935f
c92 907 0 0.0106158f
c93 900 0 12.0899f
c94 896 0 0.00828265f
c95 853 0 0.210878f
c96 816 0 0.0533066f
c97 805 0 0.114944f
c98 804 0 7.03459f
c99 801 0 0.104443f
c100 800 0 6.31699f
c101 21 0 0.613843f
c102 17 0 0.486838f
c103 16 0 6.74176f
c104 7 0 0.152029f
c105 6 0 6.76785f
r106 1831 1834 0.00394881 
r107 1825 1826 0.32244 
r108 1824 1825 0.0205664 
r109 1823 1824 0.028671 
r110 1822 1823 0.0440959 
r111 1821 1822 0.0124619 
r112 1820 1821 0.0360784 
r113 1819 1820 0.0354684 
r114 1818 1819 0.013159 
r115 1817 1818 0.0256209 
r116 1808 1828 0.00304139 
r117 1826 1808 0.00174292 
r118 1806 1808 0.461538 
r119 1770 1825 0.6 
r120 1767 1770 0.4475 
r121 1764 1824 0.6 
r122 1761 1764 1.6625 
r123 1758 1823 0.666667 
r124 1755 1758 0.365 
r125 1752 1822 0.545455 
r126 1749 1752 1.4825 
r127 1746 1821 0.545455 
r128 1743 1746 1.63 
r129 1740 1820 0.75 
r130 1737 1740 0.1575 
r131 1734 1819 0.75 
r132 1731 1734 1.1525 
r133 1728 1818 0.5 
r134 1725 1728 1.455 
r135 1812 1724 0.00305011 
r136 1722 1724 0.461538 
r137 1716 1836 0.0039415 
r138 1834 1716 0.467422 
r139 1714 1716 0.5 
r140 1712 1714 0.181 
r141 1709 1712 0.17 
r142 1709 1826 1.5 
r143 1706 1707 0.5433 
r144 1705 1706 0.2247 
r145 1704 1707 0.099 
r146 1700 1702 0.0136564 
r147 1699 1700 0.0314855 
r148 1698 1699 0.0601494 
r149 1697 1698 0.0634357 
r150 1696 1697 0.0334274 
r151 1693 1696 0.01361 
r152 1682 1834 0.5 
r153 1679 1682 0.181 
r154 1677 1817 0.0183007 
r155 1724 1677 0.00174292 
r156 1675 1677 1.5 
r157 1675 1679 0.17 
r158 1674 1705 0.5293 
r159 1656 1658 0.12 
r160 1651 1654 3 
r161 1775 1651 0.0677429 
r162 1649 1651 3 
r163 1775 1641 0.1116 
r164 1803 1641 0.0028 
r165 1639 1641 6 
r166 1620 1809 6 
r167 1615 1617 6 
r168 1615 1620 0.752258 
r169 1612 1658 0.02 
r170 1609 1656 0.02 
r171 1609 1610 2.92286 
r172 1602 1617 2.907 
r173 1601 1809 0.0571429 
r174 1600 1603 1.16241 
r175 1600 1601 0.0579048 
r176 1598 1602 0.0448005 
r177 1598 1599 0.685977 
r178 1594 1599 0.050458 
r179 1594 1595 0.12 
r180 1556 1803 0.2648 
r181 1555 1803 0.2664 
r182 1554 1803 0.2664 
r183 1547 1595 7.46512 
r184 1546 1595 7.46512 
r185 1365 1631 1 
r186 1362 1645 3 
r187 1359 1362 0.2885 
r188 1359 1627 2 
r189 1603 1356 1.03355 
r190 1356 1635 1.2 
r191 1351 1352 1.8985 
r192 1350 1351 0.7505 
r193 1639 1318 0.000149533 
r194 1674 1317 0.0555566 
r195 1317 1318 6 
r196 1316 1654 0.0444444 
r197 1649 1316 7.40741e-05 
r198 1674 1315 0.0279474 
r199 1315 1316 1.5 
r200 1627 1314 0.000233918 
r201 1706 1314 2 
r202 1635 1312 0.000114123 
r203 1705 1312 1.2 
r204 1631 1310 0.000100503 
r205 1707 1310 1 
r206 1645 1308 0.000299625 
r207 1706 1308 3 
r208 1623 1305 6 
r209 1623 1302 0.804286 
r210 1302 1603 6 
r211 1612 1300 0.787143 
r212 1300 1351 6 
r213 1299 1370 0.0561431 
r214 1610 1299 6 
r215 1605 1297 6 
r216 1605 1294 3.395 
r217 1294 1350 6 
r218 1293 1346 0.0484211 
r219 1817 1293 2 
r220 1291 1365 0.219259 
r221 1290 1362 0.0845 
r222 1289 1305 5.04429 
r223 1283 1285 0.605623 
r224 1281 1359 1.917 
r225 1281 1282 0.0149881 
r226 1279 1352 0.4775 
r227 1279 1280 0.013668 
r228 1275 1297 0.175 
r229 1274 1277 0.1525 
r230 1274 1275 0.02 
r231 1267 1350 0.563 
r232 1266 1806 0.526 
r233 1266 1291 0.0447005 
r234 1265 1806 2.122 
r235 1265 1290 0.0446983 
r236 1263 1289 0.0446983 
r237 1263 1264 3.31857 
r238 1283 1262 0.584127 
r239 1261 1264 0.0446983 
r240 1261 1262 1.02286 
r241 1256 1282 0.0313149 
r242 1256 1257 1.51 
r243 1255 1280 0.013668 
r244 1254 1282 0.0149881 
r245 1254 1255 0.2995 
r246 1249 1280 0.0337919 
r247 1249 1250 1.64138 
r248 1285 1245 1.36714 
r249 1233 1236 0.81913 
r250 1232 1236 0.309565 
r251 1226 1232 0.0446983 
r252 1226 1227 2.21913 
r253 1224 1227 0.0447246 
r254 1224 1370 4.4 
r255 1215 1277 0.02 
r256 1215 1216 1.3925 
r257 1211 1722 2.122 
r258 1211 1267 0.0446983 
r259 1126 1127 0.490516 
r260 1125 1126 0.232864 
r261 1124 1125 0.279437 
r262 1115 1116 0.279231 
r263 1114 1115 0.2665 
r264 1105 1106 0.273962 
r265 1104 1105 0.261472 
r266 1091 1092 0.278131 
r267 1088 1671 0.0526456 
r268 1667 1088 0.0552365 
r269 1698 1088 0.00227273 
r270 1696 1086 3 
r271 1696 1084 0.666667 
r272 1697 1082 1.5 
r273 1699 1080 1.5 
r274 1700 1078 3 
r275 1700 1076 3 
r276 1700 1074 2 
r277 1072 1664 0.0620926 
r278 1660 1072 0.0688218 
r279 1691 1072 0.0025 
r280 1066 1104 3.77358e-05 
r281 1064 1114 3.84615e-05 
r282 1056 1124 0.117559 
r283 1055 1056 0.119812 
r284 1055 1062 0.181784 
r285 1054 1076 0.0101408 
r286 1053 1074 0.122066 
r287 1052 1089 0.0616822 
r288 1051 1052 0.08 
r289 1051 1070 0.274084 
r290 980 982 0.0829907 
r291 980 1127 0.1 
r292 982 977 0.159252 
r293 977 989 0.159252 
r294 977 980 0.0291589 
r295 969 977 0.159252 
r296 966 1080 1.5 
r297 962 966 0.793846 
r298 959 962 0.842637 
r299 959 1082 1.5 
r300 951 955 0.55145 
r301 948 951 0.585344 
r302 940 944 0.55145 
r303 937 940 0.585344 
r304 929 933 0.55145 
r305 926 929 0.585344 
r306 922 1116 1.5 
r307 918 922 0.55145 
r308 915 918 0.585344 
r309 915 1106 1.5 
r310 911 1115 1.5 
r311 907 911 0.55145 
r312 904 907 0.585344 
r313 904 1105 1.5 
r314 900 1114 1.5 
r315 896 900 0.793846 
r316 893 896 0.842637 
r317 893 1104 1.5 
r318 888 1096 0.2 
r319 977 888 0.0391734 
r320 871 1091 0.185047 
r321 1089 871 0.0930841 
r322 869 871 0.2 
r323 869 977 0.0397569 
r324 859 1084 0.231776 
r325 1096 859 0.232523 
r326 1696 859 1 
r327 948 857 1.5 
r328 857 1082 0.261509 
r329 1697 857 1.5 
r330 955 855 1.5 
r331 855 1080 0.266538 
r332 1699 855 1.5 
r333 1700 853 1 
r334 851 1096 0.231028 
r335 1086 851 0.278131 
r336 1696 851 0.6 
r337 937 849 1.5 
r338 849 857 0.273962 
r339 1697 849 1.5 
r340 944 847 1.5 
r341 847 855 0.279231 
r342 1699 847 1.5 
r343 845 1076 0.279437 
r344 1078 845 0.279437 
r345 1700 845 0.6 
r346 843 1086 0.139065 
r347 1092 843 0.683365 
r348 1696 843 2 
r349 926 841 1.5 
r350 841 849 0.273962 
r351 1106 841 0.273962 
r352 1697 841 1.5 
r353 933 839 1.5 
r354 839 847 0.279231 
r355 1116 839 0.279231 
r356 1699 839 1.5 
r357 837 1078 0.232864 
r358 1127 837 0.139343 
r359 1700 837 0.857143 
r360 834 1091 2 
r361 834 1089 0.666667 
r362 834 1070 0.666667 
r363 1686 834 0.0165962 
r364 834 1092 0.666667 
r365 832 1105 1.5 
r366 832 1066 1.5 
r367 832 1691 0.0805639 
r368 834 832 0.0404834 
r369 832 1106 1.5 
r370 830 1115 1.5 
r371 830 1064 1.5 
r372 1685 830 0.0330312 
r373 1691 830 0.0694058 
r374 830 1116 1.5 
r375 828 1125 3 
r376 828 1124 0.666667 
r377 828 1062 0.6 
r378 828 1704 0.0532592 
r379 828 1685 0.0241042 
r380 828 1126 0.666667 
r381 818 853 0.0239252 
r382 818 1053 0.04 
r383 816 853 0.135327 
r384 816 1054 0.04 
r385 811 989 0.73271 
r386 810 969 0.737944 
r387 809 977 0.73271 
r388 808 977 0.737944 
r389 805 809 0.0451326 
r390 805 977 2.504 
r391 804 811 0.0451326 
r392 804 977 2.44889 
r393 801 808 0.045921 
r394 801 977 2.687 
r395 800 810 0.045921 
r396 800 977 2.885 
r397 21 1547 1.36978 
r398 21 1546 1.36978 
r399 17 1803 1.51848 
r400 16 1556 0.0447329 
r401 16 1803 1.51162 
r402 15 1651 0.0737243 
r403 15 17 0.0447329 
r404 1555 7 0.0447329 
r405 7 1803 1.51848 
r406 6 1554 0.0447329 
r407 6 1803 1.51162 
.ends

.subckt PM_PC3B04D%U28_U72_pgate 22 41 72 91 122 141 209 211 238 249 285 291
+ 296
c0 423 0 0.414046f
c1 420 0 0.306758f
c2 418 0 0.307529f
c3 417 0 0.307529f
c4 415 0 0.307529f
c5 414 0 0.28749f
c6 411 0 4.75712f
c7 409 0 0.219869f
c8 407 0 0.151607f
c9 405 0 16.0728f
c10 383 0 0.102306f
c11 379 0 5.91043f
c12 377 0 2.03853f
c13 373 0 3.88107f
c14 370 0 0.0347659f
c15 365 0 0.831484f
c16 355 0 3.00169f
c17 353 0 0.0612176f
c18 352 0 0.0386035f
c19 344 0 0.730208f
c20 331 0 4.60136f
c21 328 0 0.146501f
c22 327 0 0.0572348f
c23 322 0 0.0938002f
c24 318 0 0.0242189f
c25 317 0 0.0476892f
c26 315 0 0.0779827f
c27 312 0 2.25131f
c28 310 0 0.0625515f
c29 309 0 0.375759f
c30 303 0 0.0591576f
c31 300 0 0.355921f
c32 296 0 1.50598f
c33 291 0 0.972253f
c34 289 0 0.0470945f
c35 288 0 0.417152f
c36 287 0 0.159601f
c37 285 0 1.51206f
c38 249 0 2.52503f
c39 243 0 1.79327f
c40 238 0 2.26197f
c41 236 0 0.0535543f
c42 235 0 0.400586f
c43 207 0 5.1026f
c44 198 0 4.80867f
c45 197 0 0.371977f
c46 191 0 0.405378f
c47 185 0 0.370539f
c48 135 0 0.309607f
c49 126 0 4.91819f
c50 124 0 0.105999f
c51 116 0 0.309607f
c52 107 0 4.91956f
c53 105 0 0.105999f
c54 85 0 0.309607f
c55 76 0 4.91956f
c56 74 0 0.105999f
c57 66 0 0.309607f
c58 57 0 4.92186f
c59 55 0 0.106492f
c60 35 0 0.293407f
c61 26 0 4.89123f
c62 24 0 0.105999f
c63 16 0 4.85906f
c64 7 0 4.97095f
c65 5 0 0.112859f
r66 420 421 0.32439 
r67 417 418 0.32839 
r68 414 415 0.32839 
r69 405 407 6 
r70 381 383 0.0341463 
r71 377 379 6 
r72 376 383 0.02 
r73 376 377 3.54667 
r74 373 407 6 
r75 371 381 0.02 
r76 371 373 5.05333 
r77 369 379 10.4077 
r78 368 423 0.219512 
r79 421 368 0.16439 
r80 366 368 6 
r81 365 370 0.0142174 
r82 365 366 0.21561 
r83 364 420 0.219512 
r84 418 364 0.16039 
r85 362 364 6 
r86 361 417 0.219512 
r87 415 361 0.16039 
r88 359 361 6 
r89 359 362 0.708293 
r90 357 414 0.219512 
r91 411 357 0.16039 
r92 355 357 6 
r93 355 359 0.708293 
r94 354 370 0.0142174 
r95 354 362 0.462439 
r96 353 369 0.0446983 
r97 352 370 0.0327344 
r98 352 353 0.149677 
r99 349 409 6 
r100 346 405 3.37032 
r101 402 346 11.4052 
r102 344 346 6 
r103 344 349 1.15143 
r104 341 399 6 
r105 338 341 0.708293 
r106 338 396 6 
r107 335 338 0.708293 
r108 335 393 6 
r109 331 335 0.708293 
r110 331 390 6 
r111 327 328 0.12 
r112 324 327 0.0451268 
r113 320 409 0.211429 
r114 319 322 0.0785714 
r115 319 320 0.02 
r116 311 322 0.02 
r117 311 312 3.31571 
r118 309 312 0.0461631 
r119 309 310 0.30026 
r120 304 318 0.0327921 
r121 303 318 0.0327921 
r122 302 310 0.0449793 
r123 302 303 0.0943284 
r124 301 317 0.0343218 
r125 300 318 0.00972501 
r126 300 301 0.514286 
r127 295 317 0.00843222 
r128 295 296 1.59625 
r129 290 315 0.0200702 
r130 290 291 1.20375 
r131 288 317 0.0343218 
r132 288 289 0.614603 
r133 287 315 0.0982456 
r134 286 289 0.0452323 
r135 286 287 0.395385 
r136 304 285 1.59625 
r137 249 246 2.3375 
r138 328 246 6 
r139 324 243 2.67 
r140 243 402 6 
r141 242 249 2.0425 
r142 237 238 2.0425 
r143 236 242 0.0446983 
r144 235 237 0.0446983 
r145 235 236 0.51 
r146 207 211 394.95 
r147 423 206 2.81176 
r148 206 207 1.5 
r149 198 209 394.95 
r150 197 421 2.74706 
r151 197 198 1.5 
r152 195 211 394.95 
r153 194 195 1.5 
r154 399 191 0.219512 
r155 191 194 2.78235 
r156 188 399 0.164878 
r157 186 209 394.95 
r158 185 188 2.74706 
r159 185 186 1.5 
r160 135 188 0.323902 
r161 396 135 0.219512 
r162 127 420 2.07647 
r163 126 141 394.95 
r164 126 127 4.2601 
r165 125 135 2.07647 
r166 124 141 394.95 
r167 124 125 4.2601 
r168 116 396 0.160878 
r169 108 418 2.07647 
r170 107 122 394.95 
r171 107 108 4.2601 
r172 106 116 2.07647 
r173 105 122 394.95 
r174 105 106 4.2601 
r175 85 116 0.327902 
r176 393 85 0.219512 
r177 77 417 2.07647 
r178 76 91 394.95 
r179 76 77 4.2601 
r180 75 85 2.07647 
r181 74 91 394.95 
r182 74 75 4.2601 
r183 66 393 0.160878 
r184 58 415 2.07647 
r185 57 72 394.95 
r186 57 58 4.2601 
r187 56 66 2.07647 
r188 55 72 394.95 
r189 55 56 4.2601 
r190 35 66 0.327902 
r191 390 35 0.219512 
r192 27 414 2.07647 
r193 26 41 394.95 
r194 26 27 4.2601 