* File: pc3t01d.dist.sp.pex
* Created: Sun Jul  4 12:42:11 2010
* Program "Calibre xRC"
* Version "v2008.4_19.14"
* Nominal Temperature: 27C
* Circuit Temperature: 27C
* 
.subckt PM_PC3T01D%PAD 21 50 79 108 137 166 218 242 266 290 320 326 389 428 452
+ 459
c0 467 0 27.053f
c1 460 0 83.2668f
c2 459 0 64.3341f
c3 456 0 159.215f
c4 451 0 0.991473f
c5 444 0 9.96781f
c6 434 0 12.9928f
c7 425 0 0.117887f
c8 423 0 212.676f
c9 408 0 15.3329f
c10 397 0 46.9214f
c11 392 0 65.4578f
c12 390 0 15.8889f
c13 389 0 1.04909f
c14 388 0 3.85001f
c15 326 0 13.3895f
c16 320 0 13.3816f
c17 290 0 13.3793f
c18 266 0 13.3917f
c19 242 0 13.6577f
c20 218 0 13.378f
c21 176 0 7.52869f
c22 166 0 2.98552f
c23 149 0 6.78371f
c24 137 0 2.98555f
c25 120 0 6.78371f
c26 108 0 2.98555f
c27 91 0 6.78371f
c28 79 0 2.98555f
c29 62 0 6.78371f
c30 50 0 2.98555f
c31 33 0 6.78371f
c32 21 0 2.98542f
c33 4 0 6.78371f
r34 467 468 0.118407 
r35 466 467 0.118407 
r36 465 466 0.056883 
r37 464 465 0.061524 
r38 463 464 0.118407 
r39 462 463 0.0830354 
r40 461 462 0.0353716 
r41 459 460 0.0124825 
r42 457 459 0.000593149 
r43 456 457 0.0669731 
r44 451 452 0.00916 
r45 444 462 0.0545455 
r46 434 465 0.015 
r47 425 428 0.00916 
r48 425 451 2 
r49 423 434 0.0264274 
r50 421 423 0.147454 
r51 421 422 0.0288462 
r52 415 416 0.00752787 
r53 414 415 0.021023 
r54 412 414 0.000537705 
r55 412 456 0.00162999 
r56 410 412 0.000537705 
r57 408 410 0.0285508 
r58 399 451 0.1388 
r59 398 399 0.132996 
r60 397 398 0.0171733 
r61 394 395 0.0171733 
r62 393 394 0.0171733 
r63 392 393 0.0171733 
r64 391 397 0.0142401 
r65 391 395 0.00293318 
r66 390 422 0.00646891 
r67 390 392 0.00818451 
r68 388 444 0.202116 
r69 388 389 0.0147368 
r70 315 320 0.0072093 
r71 392 315 0.0566038 
r72 313 326 0.0072093 
r73 398 313 0.0566038 
r74 286 290 0.0072093 
r75 397 286 0.0566038 
r76 262 266 0.0072093 
r77 395 262 0.0566038 
r78 238 242 0.0072093 
r79 394 238 0.0566038 
r80 214 218 0.0072093 
r81 393 214 0.0566038 
r82 194 197 0.0022831 
r83 416 194 0.0375475 
r84 194 457 0.00547945 
r85 414 193 0.00210084 
r86 191 193 0.000537705 
r87 410 191 0.00210084 
r88 193 182 0.0105115 
r89 415 182 0.00712251 
r90 178 197 0.0187738 
r91 182 178 0.00376393 
r92 416 178 0.00712251 
r93 176 191 0.0142754 
r94 408 176 0.00356125 
r95 460 173 0.345778 
r96 172 468 0.0220132 
r97 172 173 0.319822 
r98 166 153 0.00249413 
r99 173 153 0.0425532 
r100 149 166 0.00249413 
r101 173 149 0.0425532 
r102 460 144 0.345778 
r103 143 467 0.0220132 
r104 143 144 0.319822 
r105 137 124 0.00249413 
r106 144 124 0.0425532 
r107 120 137 0.00249413 
r108 144 120 0.0425532 
r109 460 115 0.345778 
r110 114 466 0.0220132 
r111 114 115 0.319822 
r112 108 95 0.00249413 
r113 115 95 0.0425532 
r114 91 108 0.00249413 
r115 115 91 0.0425532 
r116 460 86 0.345778 
r117 85 464 0.0220132 
r118 85 86 0.319822 
r119 79 66 0.00249413 
r120 86 66 0.0425532 
r121 62 79 0.00249413 
r122 86 62 0.0425532 
r123 460 57 0.345778 
r124 56 463 0.0220132 
r125 56 57 0.319822 
r126 50 37 0.00249413 
r127 57 37 0.0425532 
r128 33 50 0.00249413 
r129 57 33 0.0425532 
r130 460 28 0.345778 
r131 27 461 0.0220132 
r132 27 28 0.319822 
r133 21 8 0.00249413 
r134 28 8 0.0425532 
r135 4 21 0.00249413 
r136 28 4 0.0425532 
.ends

.subckt PM_PC3T01D%noxref_2 8 18
c0 20 0 4.82415f
c1 18 0 0.993329f
c2 8 0 6.70815f
r3 18 20 0.158105 
r4 20 8 0.158526 
.ends

.subckt PM_PC3T01D%net_m26_VSSO_res 43 68 75 80 87 121
c0 121 0 0.73297f
c1 117 0 0.840968f
c2 111 0 0.054493f
c3 97 0 0.0628754f
c4 91 0 0.235924f
c5 87 0 0.519409f
c6 85 0 0.19588f
c7 84 0 0.135544f
c8 80 0 0.519409f
c9 75 0 0.519409f
c10 73 0 0.102851f
c11 72 0 0.162435f
c12 68 0 0.733874f
c13 43 0 0.565378f
c14 41 0 0.0477618f
c15 40 0 0.370596f
r16 112 117 0.0552941 
r17 111 112 0.02 
r18 110 111 0.124706 
r19 98 121 85 
r20 95 117 2.20253 
r21 94 96 6.2212 
r22 94 95 1.5553 
r23 93 94 10.0922 
r24 92 97 2.23066 
r25 91 98 3.37824 
r26 91 92 10.8571 
r27 86 97 0.93595 
r28 86 87 85 
r29 85 96 4.70046 
r30 84 97 2.23066 
r31 84 85 9 
r32 79 96 1.5553 
r33 79 80 85 
r34 74 93 1.5553 
r35 74 75 85 
r36 72 93 2.90323 
r37 72 73 10.8571 
r38 67 73 3.37824 
r39 67 68 85 
r40 42 43 0.18 
r41 110 41 0.0446983 
r42 40 42 0.0446983 
r43 40 41 0.530588 
.ends

.subckt PM_PC3T01D%U27_padr 40 44 52 118 120 122 164 172
c0 265 0 16.119f
c1 259 0 9.28884f
c2 252 0 1.97946f
c3 248 0 15.8891f
c4 234 0 0.145078f
c5 233 0 0.0372956f
c6 232 0 0.0478417f
c7 231 0 0.0873247f
c8 228 0 6.60484f
c9 225 0 0.611623f
c10 224 0 0.166886f
c11 221 0 0.144222f
c12 217 0 5.64307f
c13 215 0 0.516633f
c14 213 0 0.0693973f
c15 212 0 0.207306f
c16 211 0 0.411447f
c17 207 0 0.686989f
c18 201 0 1.0159f
c19 195 0 2.0898f
c20 189 0 0.456639f
c21 177 0 0.42066f
c22 172 0 1.07102f
c23 171 0 0.703718f
c24 170 0 0.0771116f
c25 169 0 0.489946f
c26 166 0 0.668654f
c27 164 0 5.5788e-21
c28 145 0 0.0984887f
c29 138 0 0.0817276f
c30 130 0 16.0686f
c31 122 0 1.08689f
c32 120 0 0.584528f
c33 118 0 1.05007f
c34 92 0 0.134724f
c35 88 0 0.428056f
c36 85 0 0.642623f
c37 84 0 0.408492f
c38 82 0 0.097915f
c39 79 0 1.52621f
c40 78 0 0.526158f
c41 75 0 0.396028f
c42 72 0 0.0501311f
c43 71 0 0.0346516f
c44 70 0 0.0750437f
c45 65 0 0.106118f
c46 62 0 0.104069f
c47 58 0 0.319095f
c48 56 0 0.0672112f
c49 55 0 0.107019f
c50 52 0 1.30997f
c51 49 0 0.0421449f
c52 48 0 0.374357f
c53 44 0 1.94779f
c54 40 0 1.20671f
r55 265 250 0.172857 
r56 248 250 6 
r57 244 246 3.424 
r58 234 236 3 
r59 233 234 0.109474 
r60 233 231 0.0456991 
r61 231 232 0.147143 
r62 228 265 2 
r63 226 232 0.0446983 
r64 226 228 10.3129 
r65 225 236 0.30381 
r66 219 221 0.10375 
r67 259 217 0.185079 
r68 215 217 1.2 
r69 214 215 0.482857 
r70 212 214 0.0446983 
r71 212 213 0.125714 
r72 211 213 0.0446983 
r73 210 225 0.0446983 
r74 210 211 0.407619 
r75 207 252 6 
r76 205 224 0.15871 
r77 205 207 0.867097 
r78 203 248 1.72667 
r79 246 203 9.82667 
r80 201 203 6 
r81 224 201 1.56387 
r82 188 221 0.02 
r83 188 189 0.755 
r84 184 219 0.02 
r85 179 252 2.38452 
r86 171 259 0.18836 
r87 171 172 0.0147368 
r88 169 179 0.0446983 
r89 169 170 0.619355 
r90 166 170 0.0456388 
r91 165 177 0.0200258 
r92 165 166 0.791 
r93 164 177 0.00412903 
r94 129 130 1.07733 
r95 110 122 168.333 
r96 110 145 3.92502 
r97 105 120 51.6667 
r98 104 105 1.66667 
r99 97 118 168.333 
r100 138 97 3.6393 
r101 195 92 6 
r102 89 198 0.8025 
r103 195 89 2.8475 
r104 89 130 6 
r105 88 145 0.77 
r106 198 88 6 
r107 85 193 1.2525 
r108 85 246 6 
r109 84 138 0.7825 
r110 193 84 6 
r111 189 82 6 
r112 79 186 0.8 
r113 184 79 2.045 
r114 79 129 6 
r115 186 78 6 
r116 75 182 0.482667 
r117 75 244 6 
r118 74 129 2.552 
r119 182 74 6 
r120 72 92 0.05 
r121 68 70 0.12 
r122 68 78 0.8825 
r123 66 82 0.04375 
r124 65 66 0.02 
r125 63 65 0.10375 
r126 62 72 0.0446983 
r127 61 71 0.0338756 
r128 61 62 0.1875 
r129 58 104 1.16667 
r130 57 71 0.0338756 
r131 57 58 0.245 
r132 55 71 0.00880368 
r133 55 56 0.25 
r134 51 56 0.0446983 
r135 51 52 1.2575 
r136 50 52 1.3775 
r137 48 50 0.0447588 
r138 48 49 0.544 
r139 70 44 2.375 
r140 39 63 0.02 
r141 39 40 1.40875 
r142 38 49 0.0447588 
r143 38 40 1.3775 
.ends

.subckt PM_PC3T01D%net_m57_VDDO_res 8 39
c0 39 0 2.1006f
c1 34 0 1.31941f
c2 18 0 0.0811961f
c3 15 0 0.170686f
c4 10 0 0.0679081f
c5 9 0 0.73303f
c6 8 0 0.366968f
c7 6 0 0.18289f
r8 36 39 3.87662 
r9 17 34 43.5 
r10 16 34 49.5 
r11 18 15 16.5 
r12 11 18 4.13452 
r13 10 16 3.35237 
r14 9 15 3.35237 
r15 9 10 56.025 
r16 11 8 6.95493 
r17 7 36 1.62175 
r18 7 8 5.625 
r19 6 17 3.35237 
r20 6 8 5.625 
.ends

.subckt PM_PC3T01D%VSSO 402 406 451 767 771 778 807 814 821 841 843 848 857 863
+ 869 875 884 890 899 905 911 920 926 932 939 948 954 966 1016 1022 1026 1032
c0 1032 0 31.6973f
c1 1019 0 1.99786f
c2 1016 0 45.9125f
c3 998 0 7.93618f
c4 996 0 6.97364f
c5 991 0 6.99784f
c6 986 0 6.99831f
c7 981 0 6.99822f
c8 976 0 6.99883f
c9 966 0 0.00391448f
c10 961 0 8.95235f
c11 954 0 0.342408f
c12 939 0 0.339496f
c13 932 0 1.36597f
c14 926 0 1.40025f
c15 911 0 1.35721f
c16 905 0 1.35624f
c17 890 0 1.34294f
c18 875 0 1.22309f
c19 869 0 1.08373f
c20 863 0 0.838455f
c21 848 0 1.37163f
c22 846 0 0.19571f
c23 843 0 0.00100381f
c24 841 0 8.25608e-19
c25 839 0 8.96457f
c26 826 0 7.85536f
c27 820 0 1.27875f
c28 810 0 1.65707f
c29 807 0 58.2583f
c30 774 0 1.32473f
c31 771 0 10.6388f
c32 759 0 0.101817f
c33 753 0 4.52206f
c34 750 0 0.114889f
c35 749 0 0.0401332f
c36 748 0 1.50334f
c37 746 0 0.0508991f
c38 745 0 0.316672f
c39 744 0 0.609572f
c40 740 0 0.521534f
c41 734 0 0.708327f
c42 732 0 0.0309889f
c43 731 0 3.24523f
c44 729 0 0.383003f
c45 728 0 0.713156f
c46 727 0 0.303464f
c47 726 0 3.27963f
c48 725 0 0.383249f
c49 724 0 1.83396f
c50 722 0 0.0561467f
c51 721 0 0.18317f
c52 720 0 0.335343f
c53 687 0 0.122915f
c54 686 0 8.91677f
c55 653 0 0.269869f
c56 649 0 7.03694f
c57 646 0 0.146306f
c58 451 0 0.60415f
c59 426 0 0.867853f
c60 424 0 0.101171f
c61 422 0 0.0452257f
c62 420 0 1.45727f
c63 419 0 0.0300181f
c64 406 0 0.760534f
c65 405 0 0.106741f
c66 402 0 0.556508f
c67 398 0 0.0481945f
c68 397 0 0.441687f
c69 384 0 0.11401f
c70 317 0 5.2661f
c71 284 0 14.0366f
c72 234 0 14.047f
c73 184 0 14.047f
c74 134 0 14.047f
c75 84 0 14.0469f
c76 10 0 0.146306f
r77 1030 1032 0.00282778 
r78 1029 1030 0.355444 
r79 1026 1029 0.00283333 
r80 1021 1023 0.0213115 
r81 1021 1022 0.02 
r82 1019 1021 0.00327869 
r83 1013 1014 0.124706 
r84 1012 1013 0.0414973 
r85 1011 1012 0.0396791 
r86 1010 1011 0.043262 
r87 1009 1010 0.0347594 
r88 1008 1009 0.0194118 
r89 1007 1008 0.0935829 
r90 1006 1007 0.0253476 
r91 1005 1006 0.0252406 
r92 1004 1005 0.0447059 
r93 1003 1004 0.0226738 
r94 1002 1019 0.02 
r95 1002 1003 0.114225 
r96 970 971 0.0140639 
r97 965 966 0.0126606 
r98 998 963 0.0113761 
r99 961 963 0.0638298 
r100 958 1014 2 
r101 954 958 0.000380952 
r102 939 1013 2 
r103 935 1012 0.6 
r104 932 935 0.285 
r105 929 1011 0.6 
r106 926 929 0.32 
r107 914 1010 0.6 
r108 911 914 0.36 
r109 908 1009 0.6 
r110 905 908 0.37 
r111 893 1007 0.6 
r112 890 893 0.3225 
r113 878 1006 0.6 
r114 875 878 0.325 
r115 872 1005 0.6 
r116 869 872 0.3425 
r117 866 1004 0.75 
r118 863 866 0.04 
r119 851 1003 0.6 
r120 848 851 0.365 
r121 841 965 0.013211 
r122 961 841 0.000917431 
r123 839 841 0.000913242 
r124 839 970 0.0638298 
r125 826 970 0.0113242 
r126 824 826 0.0327869 
r127 823 824 0.029258 
r128 820 823 0.0131449 
r129 820 821 0.02 
r130 817 1030 0.357143 
r131 814 817 0.21 
r132 812 1016 0.00544385 
r133 1014 812 0.0345455 
r134 810 812 1 
r135 810 814 0.445 
r136 805 807 0.00612761 
r137 805 998 0.0327869 
r138 948 803 0.130435 
r139 803 996 0.00301741 
r140 993 803 0.00301741 
r141 801 803 0.0266667 
r142 801 805 0.0287785 
r143 920 800 0.130435 
r144 800 991 0.00301741 
r145 988 800 0.00301741 
r146 798 800 0.0266667 
r147 798 801 0.0242129 
r148 899 797 0.130435 
r149 797 986 0.00301741 
r150 983 797 0.00301741 
r151 795 797 0.0266667 
r152 795 798 0.0242129 
r153 794 795 0.000615582 
r154 884 793 0.130435 
r155 793 981 0.00301741 
r156 978 793 0.00301741 
r157 791 793 0.0266667 
r158 791 794 0.0235973 
r159 857 790 0.130435 
r160 790 976 0.00301741 
r161 973 790 0.00301741 
r162 788 790 0.0266667 
r163 788 791 0.0242129 
r164 787 823 0.02 
r165 787 788 0.0277012 
r166 824 784 0.446124 
r167 781 1029 0.357143 
r168 778 781 0.21 
r169 776 1025 0.144162 
r170 1023 776 0.0334426 
r171 774 776 1 
r172 774 778 0.445 
r173 762 846 3 
r174 759 762 0.0536842 
r175 752 759 0.02 
r176 752 753 6.36632 
r177 749 750 0.1275 
r178 748 749 0.0448391 
r179 747 748 2.75862 
r180 745 747 0.044715 
r181 745 746 0.466667 
r182 744 746 0.0450432 
r183 1025 744 1.29371 
r184 740 759 0.02 
r185 740 741 0.737895 
r186 736 966 0.230275 
r187 734 961 0.210275 
r188 732 846 0.109474 
r189 730 843 0.229041 
r190 730 731 0.0863581 
r191 728 839 0.209132 
r192 728 729 0.0863581 
r193 736 726 0.0861375 
r194 726 727 0.132033 
r195 734 725 0.0861375 
r196 732 724 0.0420103 
r197 723 724 3.01467 
r198 721 723 0.0446983 
r199 721 722 0.278667 
r200 720 722 0.0447588 
r201 687 841 0.128 
r202 686 727 0.0473573 
r203 686 841 0.126 
r204 653 687 0.0473573 
r205 731 653 0.132033 
r206 649 841 0.126 
r207 647 841 0.128 
r208 646 647 0.0473573 
r209 646 729 0.250407 
r210 753 428 6 
r211 1008 426 0.75 
r212 750 424 3 
r213 422 451 0.0494737 
r214 741 422 2 
r215 419 426 0.437895 
r216 419 420 0.0407126 
r217 405 428 0.0413535 
r218 405 406 1.14783 
r219 401 402 0.221176 
r220 397 401 0.0446983 
r221 397 398 0.608235 
r222 395 398 0.0446983 
r223 395 420 2.01647 
r224 384 720 0.6025 
r225 384 424 0.0265396 
r226 320 771 0.0419737 
r227 767 320 0.0413851 
r228 794 320 0.00128205 
r229 784 317 2.21804 
r230 317 1023 0.6 
r231 948 284 0.00313778 
r232 996 284 0.0652174 
r233 963 273 0.0141284 
r234 273 965 0.0652174 
r235 920 234 0.00313778 
r236 991 234 0.0652174 
r237 224 948 0.00313778 
r238 993 224 0.0652174 
r239 899 184 0.00313778 
r240 986 184 0.0652174 
r241 174 920 0.00313778 
r242 988 174 0.0652174 
r243 884 134 0.00313778 
r244 981 134 0.0652174 
r245 124 899 0.00313778 
r246 983 124 0.0652174 
r247 857 84 0.00313778 
r248 976 84 0.0652174 
r249 74 884 0.00313778 
r250 978 74 0.0652174 
r251 34 843 0.0126027 
r252 841 34 0.0131507 
r253 971 34 0.0652174 
r254 24 857 0.00313778 
r255 973 24 0.0652174 
r256 10 725 0.250407 
r257 10 649 0.0473573 
.ends

.subckt PM_PC3T01D%VSS 805 827 836 858 863 874 877 883
c0 883 0 89.5597f
c1 874 0 55.392f
c2 861 0 2.37405f
c3 858 0 0.00368951f
c4 855 0 1.24374f
c5 836 0 4.2204f
c6 835 0 43.7281f
c7 824 0 1.88726f
c8 816 0 15.5078f
c9 802 0 1.45509f
c10 773 0 24.8158f
c11 771 0 0.0842555f
c12 770 0 10.0399f
c13 769 0 0.0657505f
c14 768 0 7.44978f
c15 767 0 0.571035f
c16 766 0 0.184939f
c17 764 0 0.57837f
c18 763 0 0.0372194f
c19 756 0 0.144425f
c20 747 0 8.78056f
c21 745 0 0.194573f
c22 743 0 1.92708f
c23 628 0 2.47774f
c24 620 0 2.22376f
c25 612 0 1.35232f
c26 610 0 0.253758f
c27 608 0 0.276497f
c28 605 0 24.8221f
c29 599 0 0.816164f
c30 598 0 6.34069f
c31 595 0 0.0996875f
c32 592 0 2.03915f
c33 586 0 0.137389f
c34 585 0 2.48633f
c35 584 0 0.154374f
c36 583 0 2.24749f
c37 539 0 0.162892f
c38 537 0 0.721903f
c39 535 0 0.203897f
c40 510 0 2.94296f
c41 496 0 3.05919f
c42 494 0 0.031054f
c43 490 0 6.91131f
c44 489 0 0.161087f
c45 474 0 3.75184f
c46 471 0 2.9639f
r47 881 883 0.000702051 
r48 880 881 0.0832563 
r49 877 880 0.000703354 
r50 873 874 0.00318245 
r51 870 871 0.0344168 
r52 869 870 0.167059 
r53 868 869 0.128574 
r54 867 868 0.0141176 
r55 861 873 0.461538 
r56 855 858 1.28857 
r57 855 871 1.5 
r58 849 869 0.0535714 
r59 835 836 2.301 
r60 831 873 0.00119641 
r61 871 831 0.0758524 
r62 829 831 0.428571 
r63 827 829 0.189 
r64 824 827 0.013 
r65 824 881 0.131579 
r66 820 821 0.56934 
r67 819 820 1.12447 
r68 816 819 0.628223 
r69 816 870 0.3 
r70 809 867 0.089651 
r71 863 809 0.00438684 
r72 807 809 0.428571 
r73 805 807 0.189 
r74 802 805 0.013 
r75 802 880 0.131579 
r76 836 796 2.59036 
r77 770 771 0.0338756 
r78 768 849 2.8715 
r79 768 769 0.0338756 
r80 762 771 0.0338756 
r81 761 769 0.0338756 
r82 758 771 0.00880368 
r83 758 836 0.958 
r84 757 769 0.00880368 
r85 757 836 0.986 
r86 756 764 0.0574488 
r87 766 756 0.0632911 
r88 753 763 0.0448201 
r89 750 861 1.518 
r90 749 861 0.426 
r91 747 796 1.08482 
r92 743 753 2.13041 
r93 770 622 0.733 
r94 836 622 1.93 
r95 620 789 3 
r96 617 849 1.612 
r97 763 617 1.283 
r98 617 868 1.5 
r99 615 836 1.07807 
r100 745 615 1.06072 
r101 615 628 1 
r102 789 612 0.24 
r103 820 612 1.5 
r104 622 610 3 
r105 819 610 3 
r106 608 796 3 
r107 821 608 3 
r108 605 813 1.1314 
r109 605 867 0.125 
r110 604 628 0.0075 
r111 625 604 0.056 
r112 813 604 0.24 
r113 602 767 0.102486 
r114 602 766 0.0155975 
r115 773 602 1 
r116 600 773 0.9662 
r117 600 625 0.02 
r118 599 762 0.5005 
r119 750 599 0.0446983 
r120 598 761 0.5005 
r121 749 598 0.0446983 
r122 597 620 0.830244 
r123 596 620 0.573659 
r124 595 835 0.8025 
r125 743 595 0.0448201 
r126 591 592 1.37048 
r127 586 597 0.0448242 
r128 586 587 0.678222 
r129 585 592 0.0447675 
r130 585 587 0.650667 
r131 584 596 0.0446983 
r132 583 591 0.0447067 
r133 583 584 1.45854 
r134 538 539 0.147619 
r135 534 535 0.14988 
r136 747 534 0.0380723 
r137 531 533 0.143333 
r138 745 530 0.0385542 
r139 528 530 0.14506 
r140 836 527 0.159 
r141 510 836 0.159 
r142 509 539 0.02 
r143 509 527 1.247 
r144 508 535 0.02 
r145 508 510 1.243 
r146 836 507 0.192 
r147 505 836 0.192 
r148 504 505 0.342 
r149 836 504 0.192 
r150 502 836 0.192 
r151 501 502 0.342 
r152 836 501 0.192 
r153 499 836 0.192 
r154 498 499 0.342 
r155 836 498 0.192 
r156 496 836 0.192 
r157 495 538 0.02 
r158 495 507 1.214 
r159 494 537 0.04 
r160 494 496 0.243 
r161 492 534 0.02 
r162 492 537 0.938734 
r163 490 538 0.0380952 
r164 490 767 4.80524 
r165 489 764 0.555238 
r166 489 533 0.0380952 
r167 836 485 0.159 
r168 483 836 0.159 
r169 482 483 0.408 
r170 836 482 0.159 
r171 480 836 0.159 
r172 479 480 0.408 
r173 836 479 0.159 
r174 477 836 0.159 
r175 476 477 0.408 
r176 836 476 0.159 
r177 474 836 0.159 
r178 473 533 0.02 
r179 473 485 1.247 
r180 472 530 0.02 
r181 472 474 1.243 
r182 471 531 0.02 
r183 470 528 0.02 
r184 470 471 4.69271 
.ends

.subckt PM_PC3T01D%U27_U69$9_gate 245 250 255 260 265 270 275 280 285 290 310
c0 461 0 0.256896f
c1 457 0 0.130993f
c2 455 0 0.468837f
c3 450 0 0.467067f
c4 445 0 0.467405f
c5 440 0 0.465045f
c6 431 0 2.82681f
c7 413 0 0.46935f
c8 412 0 0.241502f
c9 411 0 0.253188f
c10 410 0 0.250962f
c11 409 0 0.266543f
c12 408 0 0.304369f
c13 406 0 0.273588f
c14 404 0 0.0792102f
c15 403 0 0.329567f
c16 400 0 6.54958f
c17 394 0 2.90071f
c18 393 0 0.826075f
c19 389 0 1.16801f
c20 388 0 0.853604f
c21 384 0 1.16067f
c22 383 0 0.848372f
c23 379 0 1.16148f
c24 378 0 0.885176f
c25 375 0 0.187255f
c26 374 0 1.12723f
c27 373 0 0.649014f
c28 372 0 0.278218f
c29 369 0 0.136486f
c30 363 0 0.0903556f
c31 355 0 0.171313f
c32 349 0 0.680566f
c33 341 0 0.534782f
c34 333 0 0.534241f
c35 325 0 0.534344f
c36 317 0 0.533624f
c37 311 0 0.29991f
c38 310 0 0.278026f
c39 301 0 0.163718f
c40 300 0 0.61524f
c41 299 0 0.171605f
c42 298 0 0.619562f
c43 297 0 0.172568f
c44 296 0 0.615205f
c45 295 0 0.171591f
c46 294 0 0.615196f
c47 293 0 0.171517f
c48 292 0 0.550488f
c49 290 0 3.10391f
c50 285 0 3.04442f
c51 280 0 3.04446f
c52 275 0 3.04438f
c53 270 0 3.04443f
c54 265 0 3.04438f
c55 260 0 3.04444f
c56 255 0 3.04437f
c57 250 0 3.04436f
c58 245 0 3.10208f
r59 415 461 0.00341463 
r60 413 415 3 
r61 407 413 0.05061 
r62 407 408 0.662857 
r63 406 413 0.05061 
r64 405 406 0.202353 
r65 403 408 0.0446983 
r66 403 404 0.352857 
r67 400 457 6 
r68 398 404 0.0448488 
r69 398 400 6.78194 
r70 395 412 0.10286 
r71 394 405 0.0487211 
r72 394 395 3.431 
r73 393 412 0.0222484 
r74 392 455 0.00195122 
r75 452 392 0.0536585 
r76 391 393 0.0749883 
r77 391 392 1.5 
r78 390 411 0.10517 
r79 389 412 0.10286 
r80 389 390 1.442 
r81 388 411 0.0227793 
r82 387 450 0.000487805 
r83 447 387 0.055122 
r84 386 388 0.0717218 
r85 386 387 1.5 
r86 385 410 0.104738 
r87 384 411 0.10517 
r88 384 385 1.433 
r89 383 410 0.0226815 
r90 382 445 0.00292683 
r91 442 382 0.0526829 
r92 381 383 0.0723175 
r93 381 382 1.5 
r94 380 409 0.107692 
r95 379 410 0.104738 
r96 379 380 1.434 
r97 378 409 0.0233358 
r98 377 440 0.00536585 
r99 437 377 0.0502439 
r100 376 378 0.0683519 
r101 376 377 1.5 
r102 374 409 0.107692 
r103 374 375 1.392 
r104 373 375 0.0672421 
r105 433 372 0.0521951 
r106 371 373 0.112802 
r107 371 372 3 
r108 367 457 0.130323 
r109 366 369 0.153548 
r110 366 367 0.02 
r111 363 431 6 
r112 361 369 0.02 
r113 361 363 0.132903 
r114 360 431 3.99613 
r115 359 360 0.026898 
r116 355 359 0.10143 
r117 355 310 0.106667 
r118 301 349 1.85294 
r119 300 341 5.05882 
r120 299 341 5.05882 
r121 298 333 5.05882 
r122 297 333 5.05882 
r123 296 325 5.05882 
r124 295 325 5.05882 
r125 294 317 5.05882 
r126 293 317 5.05882 
r127 292 311 1.85294 
r128 287 301 3.88985 
r129 287 290 183.96 
r130 282 300 3.88985 
r131 282 285 183.96 
r132 277 299 3.88985 
r133 277 280 183.96 
r134 272 298 3.88985 
r135 272 275 183.96 
r136 267 297 3.88985 
r137 267 270 183.96 
r138 262 296 3.88985 
r139 262 265 183.96 
r140 257 295 3.88985 
r141 257 260 183.96 
r142 252 294 3.88985 
r143 252 255 183.96 
r144 247 293 3.88985 
r145 247 250 183.96 
r146 242 292 3.88985 
r147 242 245 183.96 
r148 349 171 0.00142683 
r149 461 171 3 
r150 341 153 0.00142683 
r151 455 153 3 
r152 333 128 0.00142683 
r153 450 128 3 
r154 341 117 0.0277856 
r155 452 117 3 
r156 325 92 0.00142683 
r157 445 92 3 
r158 333 81 0.0277856 
r159 447 81 3 
r160 317 56 0.00142683 
r161 440 56 3 
r162 325 45 0.0277856 
r163 442 45 3 
r164 311 20 0.00142683 
r165 433 20 3 
r166 317 9 0.0277856 
r167 437 9 3 
.ends

.subckt PM_PC3T01D%U15_ngate 56 63 70 77 85 93 141 147
c0 200 0 0.452495f
c1 192 0 16.5198f
c2 185 0 0.533878f
c3 180 0 1.11628f
c4 178 0 0.0560832f
c5 177 0 6.96327f
c6 176 0 4.81172f
c7 173 0 0.195375f
c8 170 0 0.463651f
c9 168 0 0.100464f
c10 149 0 0.606482f
c11 148 0 0.167058f
c12 147 0 3.04886f
c13 141 0 3.04886f
c14 108 0 0.134458f
c15 105 0 1.31978f
c16 104 0 0.134389f
c17 101 0 0.815491f
c18 100 0 0.0377296f
c19 99 0 0.0461791f
c20 98 0 0.0265254f
c21 97 0 0.0265254f
c22 93 0 0.969008f
c23 90 0 0.128939f
c24 89 0 1.63547f
c25 85 0 1.26111f
c26 82 0 0.0804526f
c27 81 0 0.252089f
c28 77 0 1.33816f
c29 74 0 0.348431f
c30 70 0 1.42004f
c31 67 0 0.25093f
c32 63 0 1.459f
c33 61 0 0.0503336f
c34 60 0 0.292203f
c35 56 0 1.43019f
r36 191 192 0.397333 
r37 188 191 7.02133 
r38 180 183 0.0698008 
r39 180 200 1.5 
r40 177 183 0.02 
r41 177 178 8.927 
r42 175 178 0.0451545 
r43 175 176 7.7397 
r44 188 173 6 
r45 171 173 6 
r46 170 176 0.0448752 
r47 170 171 0.582667 
r48 166 168 0.0755556 
r49 159 166 0.02 
r50 185 156 0.00142683 
r51 153 185 0.0277856 
r52 149 185 5.05882 
r53 148 185 5.05882 
r54 143 149 3.88985 
r55 143 147 183.96 
r56 138 148 3.88985 
r57 138 141 183.96 
r58 108 118 0.0370021 
r59 168 108 6 
r60 105 164 2.59143 
r61 105 192 6 
r62 164 104 6 
r63 159 101 1.53143 
r64 101 191 6 
r65 99 104 0.0613333 
r66 92 93 1.2375 
r67 91 100 0.0310989 
r68 90 92 0.044713 
r69 90 91 0.152258 
r70 89 100 0.0112231 
r71 88 99 0.0447675 
r72 88 89 3.52 
r73 118 85 1.6275 
r74 83 85 1.28 
r75 81 100 0.0310989 
r76 81 82 0.301935 
r77 76 82 0.044713 
r78 76 77 1.2375 
r79 75 98 0.0338756 
r80 74 83 0.0446983 
r81 74 75 0.51 
r82 69 98 0.00880368 
r83 69 70 1.28 
r84 68 97 0.0338756 
r85 67 98 0.0338756 
r86 67 68 0.43 
r87 62 97 0.00880368 
r88 62 63 1.415 
r89 60 97 0.0338756 
r90 60 61 0.51 
r91 55 61 0.0446983 
r92 55 56 1.415 
r93 26 200 0.00146341 
r94 26 156 3 
r95 8 26 0.0556098 
r96 8 153 3 
.ends

.subckt PM_PC3T01D%net_m56_VDDO_res 7 33
c0 33 0 1.65237f
c1 29 0 0.144043f
c2 17 0 0.182671f
c3 16 0 0.793899f
c4 15 0 1.71604f
c5 14 0 0.0798908f
c6 10 0 0.0756307f
c7 9 0 0.112025f
c8 7 0 0.369184f
r9 16 33 2.05452 
r10 16 17 8.75861 
r11 15 29 66.7742 
r12 14 29 60.5806 
r13 11 15 3.35663 
r14 11 17 11.5758 
r15 10 14 3.35347 
r16 9 10 6.625 
r17 6 9 4.5965 
r18 6 7 4.56364 
.ends

.subckt PM_PC3T01D%VDDO 321 761 766 773 780 787 794 801 808 908 925 928 935 940
+ 947 974 1035 1040 1359 1363 1366 1371 1378 1385 1406 1434 1445 1453 1461 1467
+ 1473 1479 1485 1491 1539 1553 1582 1587
c0 1587 0 20.9278f
c1 1579 0 4.33677f
c2 1570 0 6.89048f
c3 1561 0 8.82377f
c4 1556 0 6.16278f
c5 1553 0 50.2448f
c6 1537 0 9.5346f
c7 1533 0 2.98997f
c8 1499 0 9.62052f
c9 1491 0 1.38187f
c10 1485 0 2.71574f
c11 1479 0 1.36785f
c12 1473 0 1.73596f
c13 1467 0 1.91949f
c14 1461 0 2.46067f
c15 1458 0 3.08994f
c16 1442 0 0.505282f
c17 1438 0 30.3478f
c18 1437 0 1.96564f
c19 1434 0 63.1175f
c20 1433 0 1.51937f
c21 1384 0 51.3096f
c22 1374 0 0.601206f
c23 1373 0 1.41036f
c24 1371 0 3.00485f
c25 1363 0 2.50489f
c26 1345 0 0.331843f
c27 1341 0 0.149617f
c28 1335 0 0.234896f
c29 1325 0 0.619196f
c30 1321 0 0.191655f
c31 1317 0 0.616262f
c32 1311 0 3.07997f
c33 1309 0 0.700006f
c34 1306 0 0.0603713f
c35 1304 0 0.500225f
c36 1299 0 2.33488f
c37 1295 0 2.20272f
c38 1293 0 0.0918332f
c39 1292 0 0.0398176f
c40 1291 0 0.0453588f
c41 1290 0 0.666252f
c42 1287 0 0.22837f
c43 1244 0 9.76182f
c44 1235 0 0.888242f
c45 1059 0 0.33202f
c46 1035 0 0.457512f
c47 996 0 4.04685f
c48 991 0 0.114454f
c49 990 0 1.67655f
c50 988 0 0.239363f
c51 984 0 0.00598355f
c52 982 0 8.21848f
c53 981 0 3.3584f
c54 976 0 1.01623f
c55 973 0 0.0193183f
c56 971 0 0.0208492f
c57 970 0 5.44734f
c58 967 0 0.174994f
c59 957 0 0.0968285f
c60 954 0 0.0596675f
c61 953 0 3.19808f
c62 952 0 1.12795f
c63 947 0 1.43984f
c64 944 0 0.451293f
c65 940 0 1.37574f
c66 928 0 0.359158f
c67 925 0 0.693246f
c68 921 0 0.0413754f
c69 920 0 0.413579f
c70 919 0 0.0297498f
c71 918 0 0.709826f
c72 917 0 0.320685f
c73 908 0 1.07926f
c74 813 0 7.40097f
c75 801 0 0.0234212f
c76 794 0 0.0106158f
c77 787 0 0.0106158f
c78 780 0 0.0106158f
c79 773 0 0.0106158f
c80 766 0 0.00937345f
c81 761 0 7.09563f
c82 733 0 12.0261f
c83 731 0 19.7205f
c84 729 0 19.7202f
c85 727 0 19.7473f
c86 725 0 19.7205f
c87 723 0 19.5248f
c88 721 0 11.8056f
c89 695 0 0.114758f
c90 694 0 6.34481f
c91 691 0 0.103657f
c92 690 0 6.27029f
c93 321 0 0.614015f
c94 17 0 0.486838f
c95 16 0 6.73982f
c96 7 0 0.152029f
c97 6 0 6.75738f
r98 1582 1585 0.00394881 
r99 1579 1580 0.956244 
r100 1572 1573 0.279231 
r101 1570 1572 0.266538 
r102 1563 1564 0.273962 
r103 1561 1563 0.261509 
r104 1557 1558 1.79477 
r105 1556 1557 0.000373832 
r106 1550 1551 0.340828 
r107 1549 1550 0.0205664 
r108 1548 1549 0.0309368 
r109 1547 1548 0.0417429 
r110 1546 1547 0.0124619 
r111 1545 1546 0.0660566 
r112 1544 1545 0.0256209 
r113 1543 1544 0.0186492 
r114 1536 1537 0.0228571 
r115 1535 1553 0.00304139 
r116 1551 1535 0.00174292 
r117 1533 1535 0.461538 
r118 1494 1550 0.6 
r119 1491 1494 0.4475 
r120 1488 1549 0.6 
r121 1485 1488 1.6625 
r122 1482 1548 0.666667 
r123 1479 1482 0.365 
r124 1476 1547 0.545455 
r125 1473 1476 1.4825 
r126 1470 1546 0.545455 
r127 1467 1470 1.63 
r128 1464 1545 0.5 
r129 1461 1464 1.455 
r130 1460 1543 0.00174292 
r131 1539 1460 0.00305011 
r132 1458 1460 0.461538 
r133 1453 1579 0.2 
r134 1449 1587 0.0039415 
r135 1585 1449 0.467422 
r136 1447 1449 0.5 
r137 1445 1447 0.181 
r138 1442 1445 0.17 
r139 1442 1551 1.5 
r140 1439 1440 0.5433 
r141 1438 1439 0.2247 
r142 1437 1453 0.0539366 
r143 1437 1440 0.099 
r144 1580 1433 0.698216 
r145 1431 1433 0.2 
r146 1431 1434 0.0136564 
r147 1573 1430 0.279231 
r148 1430 1428 0.279231 
r149 1428 1426 0.279231 
r150 1426 1424 0.266538 
r151 1422 1424 1.5 
r152 1422 1426 1.5 
r153 1422 1428 1.5 
r154 1422 1430 1.5 
r155 1422 1431 0.0314855 
r156 1564 1420 0.273962 
r157 1420 1418 0.273962 
r158 1418 1416 0.273962 
r159 1416 1414 0.261509 
r160 1412 1414 1.5 
r161 1412 1416 1.5 
r162 1412 1418 1.5 
r163 1412 1420 1.5 
r164 1558 1411 0.000747664 
r165 1409 1411 0.2 
r166 1409 1412 0.0334274 
r167 1406 1409 0.01361 
r168 1400 1572 1.5 
r169 1400 1570 1.5 
r170 1400 1573 1.5 
r171 1398 1400 0.0694058 
r172 1392 1563 1.5 
r173 1392 1561 1.5 
r174 1392 1398 0.0805639 
r175 1392 1564 1.5 
r176 1388 1556 0.2 
r177 1388 1392 0.0404834 
r178 1385 1388 0.0165962 
r179 1384 1453 0.0234268 
r180 1384 1400 0.0330312 
r181 1381 1585 0.5 
r182 1378 1381 0.181 
r183 1374 1543 1.5 
r184 1374 1378 0.17 
r185 1373 1438 0.5293 
r186 1369 1371 0.0526456 
r187 1366 1369 0.0552365 
r188 1347 1350 3 
r189 1499 1347 0.0677429 
r190 1345 1347 3 
r191 1499 1337 0.1116 
r192 1530 1337 0.0028 
r193 1335 1337 6 
r194 1314 1536 6 
r195 1309 1311 6 
r196 1309 1314 0.752258 
r197 1303 1306 0.0446983 
r198 1303 1304 0.510588 
r199 1294 1311 2.907 
r200 1293 1536 0.0571429 
r201 1292 1295 1.15225 
r202 1292 1293 0.0579048 
r203 1290 1294 0.0448005 
r204 1290 1291 0.685977 
r205 1286 1291 0.050458 
r206 1286 1287 0.12 
r207 1537 1248 8.86452 
r208 1244 1530 0.2648 
r209 1243 1530 0.2664 
r210 1242 1530 0.2664 
r211 1235 1287 7.46512 
r212 1234 1287 7.46512 
r213 1055 1059 1 
r214 1052 1341 3 
r215 1049 1052 0.2885 
r216 1049 1321 2 
r217 1295 1044 1.03355 
r218 1044 1325 1.2 
r219 1039 1040 2.645 
r220 1335 1009 0.000149533 
r221 1373 1008 0.0555566 
r222 1008 1009 6 
r223 1007 1350 0.0444444 
r224 1345 1007 7.40741e-05 
r225 1373 1006 0.0279474 
r226 1006 1007 1.5 
r227 1321 1005 0.000233918 
r228 1439 1005 2 
r229 1325 1003 0.000114123 
r230 1438 1003 1.2 
r231 1059 1001 0.000100503 
r232 1440 1001 1 
r233 1341 999 0.000299625 
r234 1439 999 3 
r235 1317 996 6 
r236 1317 993 0.804286 
r237 993 1295 6 
r238 1306 991 0.102353 
r239 991 1248 3 
r240 1304 990 3 
r241 1299 988 6 
r242 1299 985 3.395 
r243 985 1039 6 
r244 984 1035 0.0484211 
r245 1544 984 2 
r246 982 1055 0.219259 
r247 981 1052 0.0845 
r248 980 996 5.04429 
r249 974 976 0.605623 
r250 972 1049 1.917 
r251 972 973 0.0149881 
r252 970 1040 0.4775 
r253 970 971 0.013668 
r254 969 990 2.48824 
r255 965 988 0.175 
r256 964 967 0.1525 
r257 964 965 0.02 
r258 957 1039 0.567 
r259 956 1533 0.526 
r260 956 982 0.0447005 
r261 955 1533 2.122 
r262 955 981 0.0446983 
r263 953 980 0.0446983 
r264 953 954 3.31857 
r265 974 952 0.584127 
r266 951 954 0.0446983 
r267 951 952 1.02286 
r268 946 973 0.0313149 
r269 946 947 1.51 
r270 945 971 0.013668 
r271 944 973 0.0149881 
r272 944 945 0.2995 
r273 939 971 0.0337919 
r274 939 940 1.64138 
r275 976 935 1.36714 
r276 925 928 0.81913 
r277 924 928 0.309565 
r278 920 969 0.0468981 
r279 920 921 0.906087 
r280 918 924 0.0446983 
r281 918 919 1.70609 
r282 917 921 0.0446983 
r283 916 919 0.0446983 
r284 916 917 0.782609 
r285 907 967 0.02 
r286 907 908 1.3925 
r287 903 1458 2.122 
r288 903 957 0.0446983 
r289 813 761 0.159252 
r290 824 761 0.159252 
r291 761 831 0.159252 
r292 735 824 0.0829907 
r293 761 735 0.0291589 
r294 1580 735 0.1 
r295 766 733 0.793846 
r296 1570 733 1.5 
r297 773 731 0.55145 
r298 1572 731 1.5 
r299 780 729 0.55145 
r300 1573 729 1.5 
r301 787 727 0.55145 
r302 1430 727 1.5 
r303 794 725 0.55145 
r304 1428 725 1.5 
r305 801 723 0.55145 
r306 1426 723 1.5 
r307 808 721 0.793846 
r308 1424 721 1.5 
r309 719 766 0.842637 