* File: pt3t01.dist.sp.pex
* Created: Sun Jul  4 13:05:03 2010
* Program "Calibre xRC"
* Version "v2008.4_19.14"
* Nominal Temperature: 27C
* Circuit Temperature: 27C
* 
.subckt PM_PT3T01%PAD 21 50 79 108 137 166 218 242 266 290 320 326 389 428 452
+ 459
c0 467 0 27.0361f
c1 460 0 83.2608f
c2 459 0 64.3341f
c3 456 0 159.215f
c4 451 0 0.991473f
c5 444 0 9.96781f
c6 434 0 13.0034f
c7 425 0 0.117887f
c8 423 0 212.663f
c9 408 0 15.3329f
c10 397 0 46.9214f
c11 392 0 65.4578f
c12 390 0 15.8889f
c13 389 0 1.04909f
c14 388 0 3.85001f
c15 326 0 13.3895f
c16 320 0 13.3816f
c17 290 0 13.3793f
c18 266 0 13.3917f
c19 242 0 13.6577f
c20 218 0 13.378f
c21 176 0 7.52869f
c22 166 0 2.98552f
c23 149 0 6.78371f
c24 137 0 2.98555f
c25 120 0 6.78371f
c26 108 0 2.98555f
c27 91 0 6.78371f
c28 79 0 2.98555f
c29 62 0 6.78371f
c30 50 0 2.98555f
c31 33 0 6.78371f
c32 21 0 2.98542f
c33 4 0 6.78371f
r34 467 468 0.118407 
r35 466 467 0.118407 
r36 465 466 0.056883 
r37 464 465 0.061524 
r38 463 464 0.118407 
r39 462 463 0.0830354 
r40 461 462 0.0353716 
r41 459 460 0.0124825 
r42 457 459 0.000593149 
r43 456 457 0.0669731 
r44 451 452 0.00916 
r45 444 462 0.0545455 
r46 434 465 0.015 
r47 425 428 0.00916 
r48 425 451 2 
r49 423 434 0.0264274 
r50 421 423 0.147454 
r51 421 422 0.0288462 
r52 415 416 0.00752787 
r53 414 415 0.021023 
r54 412 414 0.000537705 
r55 412 456 0.00162999 
r56 410 412 0.000537705 
r57 408 410 0.0285508 
r58 399 451 0.1388 
r59 398 399 0.132996 
r60 397 398 0.0171733 
r61 394 395 0.0171733 
r62 393 394 0.0171733 
r63 392 393 0.0171733 
r64 391 397 0.0142401 
r65 391 395 0.00293318 
r66 390 422 0.00646891 
r67 390 392 0.00818451 
r68 388 444 0.202116 
r69 388 389 0.0147368 
r70 315 320 0.0072093 
r71 392 315 0.0566038 
r72 313 326 0.0072093 
r73 398 313 0.0566038 
r74 286 290 0.0072093 
r75 397 286 0.0566038 
r76 262 266 0.0072093 
r77 395 262 0.0566038 
r78 238 242 0.0072093 
r79 394 238 0.0566038 
r80 214 218 0.0072093 
r81 393 214 0.0566038 
r82 194 197 0.0022831 
r83 416 194 0.0375475 
r84 194 457 0.00547945 
r85 414 193 0.00210084 
r86 191 193 0.000537705 
r87 410 191 0.00210084 
r88 193 182 0.0105115 
r89 415 182 0.00712251 
r90 178 197 0.0187738 
r91 182 178 0.00376393 
r92 416 178 0.00712251 
r93 176 191 0.0142754 
r94 408 176 0.00356125 
r95 460 173 0.345778 
r96 172 468 0.0220132 
r97 172 173 0.319822 
r98 166 153 0.00249413 
r99 173 153 0.0425532 
r100 149 166 0.00249413 
r101 173 149 0.0425532 
r102 460 144 0.345778 
r103 143 467 0.0220132 
r104 143 144 0.319822 
r105 137 124 0.00249413 
r106 144 124 0.0425532 
r107 120 137 0.00249413 
r108 144 120 0.0425532 
r109 460 115 0.345778 
r110 114 466 0.0220132 
r111 114 115 0.319822 
r112 108 95 0.00249413 
r113 115 95 0.0425532 
r114 91 108 0.00249413 
r115 115 91 0.0425532 
r116 460 86 0.345778 
r117 85 464 0.0220132 
r118 85 86 0.319822 
r119 79 66 0.00249413 
r120 86 66 0.0425532 
r121 62 79 0.00249413 
r122 86 62 0.0425532 
r123 460 57 0.345778 
r124 56 463 0.0220132 
r125 56 57 0.319822 
r126 50 37 0.00249413 
r127 57 37 0.0425532 
r128 33 50 0.00249413 
r129 57 33 0.0425532 
r130 460 28 0.345778 
r131 27 461 0.0220132 
r132 27 28 0.319822 
r133 21 8 0.00249413 
r134 28 8 0.0425532 
r135 4 21 0.00249413 
r136 28 4 0.0425532 
.ends

.subckt PM_PT3T01%noxref_2 8 18
c0 20 0 4.82415f
c1 18 0 0.993329f
c2 8 0 6.71042f
r3 18 20 0.158105 
r4 20 8 0.158526 
.ends

.subckt PM_PT3T01%net_m26_VSSO_res 45 64 71 76 83 117
c0 117 0 0.73297f
c1 113 0 0.840968f
c2 107 0 0.054493f
c3 93 0 0.0628754f
c4 87 0 0.235924f
c5 83 0 0.519409f
c6 81 0 0.19588f
c7 80 0 0.135544f
c8 76 0 0.519409f
c9 71 0 0.519409f
c10 69 0 0.102851f
c11 68 0 0.162435f
c12 64 0 0.733874f
c13 45 0 0.372606f
c14 44 0 0.192772f
c15 43 0 0.0477618f
c16 42 0 0.370596f
r17 108 113 0.0552941 
r18 107 108 0.02 
r19 106 107 0.124706 
r20 94 117 85 
r21 91 113 2.20253 
r22 90 92 6.2212 
r23 90 91 1.5553 
r24 89 90 10.0922 
r25 88 93 2.23066 
r26 87 94 3.37824 
r27 87 88 10.8571 
r28 82 93 0.93595 
r29 82 83 85 
r30 81 92 4.70046 
r31 80 93 2.23066 
r32 80 81 9 
r33 75 92 1.5553 
r34 75 76 85 
r35 70 89 1.5553 
r36 70 71 85 
r37 68 89 2.90323 
r38 68 69 10.8571 
r39 63 69 3.37824 
r40 63 64 85 
r41 44 45 0.18 
r42 106 43 0.0446983 
r43 42 44 0.0446983 
r44 42 43 0.530588 
.ends

.subckt PM_PT3T01%U27_padr 40 44 52 118 120 123 163
c0 233 0 16.1372f
c1 227 0 9.32043f
c2 223 0 15.8638f
c3 206 0 0.145078f
c4 205 0 0.0372956f
c5 204 0 0.0478417f
c6 203 0 0.0873247f
c7 200 0 6.60484f
c8 197 0 0.611623f
c9 195 0 0.144222f
c10 191 0 5.64522f
c11 189 0 0.516633f
c12 187 0 0.0693973f
c13 186 0 0.207306f
c14 185 0 0.411447f
c15 179 0 2.0898f
c16 173 0 0.456639f
c17 164 0 0.396028f
c18 163 0 1.07645f
c19 162 0 0.703354f
c20 143 0 0.428056f
c21 138 0 0.0817276f
c22 123 0 1.08689f
c23 120 0 0.584528f
c24 118 0 1.05007f
c25 111 0 0.0984887f
c26 92 0 0.134724f
c27 90 0 16.069f
c28 85 0 0.642623f
c29 84 0 0.408492f
c30 82 0 0.097915f
c31 79 0 1.52621f
c32 78 0 0.526158f
c33 72 0 0.0501311f
c34 71 0 0.0346516f
c35 70 0 0.0750437f
c36 65 0 0.106118f
c37 62 0 0.104069f
c38 58 0 0.319095f
c39 56 0 0.0672112f
c40 55 0 0.107019f
c41 52 0 1.30997f
c42 49 0 0.0421449f
c43 48 0 0.374357f
c44 44 0 1.94779f
c45 40 0 1.20671f
r46 233 225 0.172857 
r47 223 225 6 
r48 222 223 11.5533 
r49 206 208 3 
r50 205 206 0.109474 
r51 205 203 0.0456991 
r52 203 204 0.147143 
r53 200 233 2 
r54 198 204 0.0446983 
r55 198 200 10.3129 
r56 197 208 0.30381 
r57 193 195 0.10375 
r58 227 191 0.185079 
r59 189 191 1.2 
r60 188 189 0.482857 
r61 186 188 0.0446983 
r62 186 187 0.125714 
r63 185 187 0.0446983 
r64 184 197 0.0446983 
r65 184 185 0.407619 
r66 179 181 2.8475 
r67 172 195 0.02 
r68 172 173 0.755 
r69 168 193 0.02 
r70 162 227 0.18836 
r71 162 163 0.0147368 
r72 127 129 2.552 
r73 143 111 0.77 
r74 110 123 168.333 
r75 110 111 3.92502 
r76 105 120 51.6667 
r77 104 105 1.66667 
r78 97 118 168.333 
r79 138 97 3.6393 
r80 179 92 6 
r81 129 90 1.07733 
r82 181 90 6 
r83 181 87 0.8025 
r84 87 143 6 
r85 85 177 1.2525 
r86 85 222 6 
r87 84 138 0.7825 
r88 177 84 6 
r89 173 82 6 
r90 79 170 0.8 
r91 168 79 2.045 
r92 79 129 6 
r93 170 78 6 
r94 76 222 3.424 
r95 164 76 6 
r96 164 73 0.482667 
r97 73 127 6 
r98 72 92 0.05 
r99 68 70 0.12 
r100 68 78 0.8825 
r101 66 82 0.04375 
r102 65 66 0.02 
r103 63 65 0.10375 
r104 62 72 0.0446983 
r105 61 71 0.0338756 
r106 61 62 0.1875 
r107 58 104 1.16667 
r108 57 71 0.0338756 
r109 57 58 0.245 
r110 55 71 0.00880368 
r111 55 56 0.25 
r112 51 56 0.0446983 
r113 51 52 1.2575 
r114 50 52 1.3775 
r115 48 50 0.0447588 
r116 48 49 0.544 
r117 70 44 2.375 
r118 39 63 0.02 
r119 39 40 1.40875 
r120 38 49 0.0447588 
r121 38 40 1.3775 
.ends

.subckt PM_PT3T01%VSS 805 827 836 858 863 874 877 883
c0 883 0 89.5103f
c1 874 0 53.8088f
c2 861 0 2.37405f
c3 858 0 0.00368951f
c4 855 0 1.24098f
c5 836 0 4.21885f
c6 835 0 43.6924f
c7 824 0 1.88726f
c8 816 0 15.1327f
c9 802 0 1.45509f
c10 773 0 24.8158f
c11 771 0 0.0842555f
c12 770 0 9.99789f
c13 769 0 0.0657505f
c14 768 0 7.41255f
c15 767 0 0.571035f
c16 766 0 0.184939f
c17 764 0 0.57837f
c18 763 0 0.0372194f
c19 756 0 0.144425f
c20 747 0 8.78056f
c21 745 0 0.194573f
c22 743 0 1.92708f
c23 628 0 2.47774f
c24 620 0 2.22376f
c25 612 0 1.35232f
c26 610 0 0.228409f
c27 608 0 0.276497f
c28 605 0 24.8221f
c29 599 0 0.816164f
c30 598 0 6.34069f
c31 595 0 0.0996875f
c32 592 0 2.03915f
c33 586 0 0.137389f
c34 585 0 2.48633f
c35 584 0 0.154374f
c36 583 0 2.24749f
c37 539 0 0.162892f
c38 537 0 0.721903f
c39 535 0 0.203897f
c40 510 0 2.94296f
c41 496 0 3.05919f
c42 494 0 0.031054f
c43 490 0 6.91131f
c44 489 0 0.161087f
c45 474 0 3.75184f
c46 471 0 2.9639f
r47 881 883 0.000702051 
r48 880 881 0.0832563 
r49 877 880 0.000703354 
r50 873 874 0.00318245 
r51 870 871 0.0344168 
r52 869 870 0.167059 
r53 868 869 0.128574 
r54 867 868 0.0141176 
r55 861 873 0.461538 
r56 855 858 1.28857 
r57 855 871 1.5 
r58 849 869 0.0535714 
r59 835 836 2.301 
r60 831 873 0.00119641 
r61 871 831 0.0758524 
r62 829 831 0.428571 
r63 827 829 0.189 
r64 824 827 0.013 
r65 824 881 0.131579 
r66 820 821 0.56934 
r67 819 820 1.12447 
r68 816 819 0.628223 
r69 816 870 0.3 
r70 809 867 0.089651 
r71 863 809 0.00438684 
r72 807 809 0.428571 
r73 805 807 0.189 
r74 802 805 0.013 
r75 802 880 0.131579 
r76 836 796 2.59036 
r77 770 771 0.0338756 
r78 768 849 2.8715 
r79 768 769 0.0338756 
r80 762 771 0.0338756 
r81 761 769 0.0338756 
r82 758 771 0.00880368 
r83 758 836 0.958 
r84 757 769 0.00880368 
r85 757 836 0.986 
r86 756 764 0.0574488 
r87 766 756 0.0632911 
r88 753 763 0.0448201 
r89 750 861 1.518 
r90 749 861 0.426 
r91 747 796 1.08482 
r92 743 753 2.13041 
r93 770 622 0.733 
r94 836 622 1.93 
r95 620 789 3 
r96 617 849 1.612 
r97 763 617 1.283 
r98 617 868 1.5 
r99 615 836 1.07807 
r100 745 615 1.06072 
r101 615 628 1 
r102 789 612 0.24 
r103 820 612 1.5 
r104 622 610 3 
r105 819 610 3 
r106 608 796 3 
r107 821 608 3 
r108 605 813 1.1314 
r109 605 867 0.125 
r110 604 628 0.0075 
r111 625 604 0.056 
r112 813 604 0.24 
r113 602 767 0.102486 
r114 602 766 0.0155975 
r115 773 602 1 
r116 600 773 0.9662 
r117 600 625 0.02 
r118 599 762 0.5005 
r119 750 599 0.0446983 
r120 598 761 0.5005 
r121 749 598 0.0446983 
r122 597 620 0.830244 
r123 596 620 0.573659 
r124 595 835 0.8025 
r125 743 595 0.0448201 
r126 591 592 1.37048 
r127 586 597 0.0448242 
r128 586 587 0.678222 
r129 585 592 0.0447675 
r130 585 587 0.650667 
r131 584 596 0.0446983 
r132 583 591 0.0447067 
r133 583 584 1.45854 
r134 538 539 0.147619 
r135 534 535 0.14988 
r136 747 534 0.0380723 
r137 531 533 0.143333 
r138 745 530 0.0385542 
r139 528 530 0.14506 
r140 836 527 0.159 
r141 510 836 0.159 
r142 509 539 0.02 
r143 509 527 1.247 
r144 508 535 0.02 
r145 508 510 1.243 
r146 836 507 0.192 
r147 505 836 0.192 
r148 504 505 0.342 
r149 836 504 0.192 
r150 502 836 0.192 
r151 501 502 0.342 
r152 836 501 0.192 
r153 499 836 0.192 
r154 498 499 0.342 
r155 836 498 0.192 
r156 496 836 0.192 
r157 495 538 0.02 
r158 495 507 1.214 
r159 494 537 0.04 
r160 494 496 0.243 
r161 492 534 0.02 
r162 492 537 0.938734 
r163 490 538 0.0380952 
r164 490 767 4.80524 
r165 489 764 0.555238 
r166 489 533 0.0380952 
r167 836 485 0.159 
r168 483 836 0.159 
r169 482 483 0.408 
r170 836 482 0.159 
r171 480 836 0.159 
r172 479 480 0.408 
r173 836 479 0.159 
r174 477 836 0.159 
r175 476 477 0.408 
r176 836 476 0.159 
r177 474 836 0.159 
r178 473 533 0.02 
r179 473 485 1.247 
r180 472 530 0.02 
r181 472 474 1.243 
r182 471 531 0.02 
r183 470 528 0.02 
r184 470 471 4.69271 
.ends

.subckt PM_PT3T01%U27_U69$9_gate 245 250 255 260 265 270 275 280 285 290 310
c0 461 0 0.256896f
c1 457 0 0.130993f
c2 455 0 0.468837f
c3 450 0 0.467067f
c4 445 0 0.467405f
c5 440 0 0.465045f
c6 431 0 2.82662f
c7 413 0 0.46935f
c8 412 0 0.241502f
c9 411 0 0.253188f
c10 410 0 0.250962f
c11 409 0 0.266543f
c12 408 0 0.304369f
c13 406 0 0.273588f
c14 404 0 0.0792102f
c15 403 0 0.329567f
c16 400 0 6.54958f
c17 394 0 2.90071f
c18 393 0 0.826075f
c19 389 0 1.16801f
c20 388 0 0.853604f
c21 384 0 1.16067f
c22 383 0 0.848372f
c23 379 0 1.16148f
c24 378 0 0.885176f
c25 375 0 0.187255f
c26 374 0 1.12723f
c27 373 0 0.649014f
c28 372 0 0.278218f
c29 369 0 0.136486f
c30 363 0 0.0903556f
c31 355 0 0.171215f
c32 349 0 0.680566f
c33 341 0 0.534782f
c34 333 0 0.534241f
c35 325 0 0.534344f
c36 317 0 0.533624f
c37 311 0 0.29991f
c38 310 0 0.278026f
c39 301 0 0.163718f
c40 300 0 0.61524f
c41 299 0 0.171605f
c42 298 0 0.619562f
c43 297 0 0.172568f
c44 296 0 0.615205f
c45 295 0 0.171591f
c46 294 0 0.615196f
c47 293 0 0.171517f
c48 292 0 0.550488f
c49 290 0 3.10391f
c50 285 0 3.04442f
c51 280 0 3.04446f
c52 275 0 3.04438f
c53 270 0 3.04443f
c54 265 0 3.04438f
c55 260 0 3.04444f
c56 255 0 3.04437f
c57 250 0 3.04436f
c58 245 0 3.10208f
r59 415 461 0.00341463 
r60 413 415 3 
r61 407 413 0.05061 
r62 407 408 0.662857 
r63 406 413 0.05061 
r64 405 406 0.202353 
r65 403 408 0.0446983 
r66 403 404 0.352857 
r67 400 457 6 
r68 398 404 0.0448488 
r69 398 400 6.78194 
r70 395 412 0.10286 
r71 394 405 0.0487211 
r72 394 395 3.431 
r73 393 412 0.0222484 
r74 392 455 0.00195122 
r75 452 392 0.0536585 
r76 391 393 0.0749883 
r77 391 392 1.5 
r78 390 411 0.10517 
r79 389 412 0.10286 
r80 389 390 1.442 
r81 388 411 0.0227793 
r82 387 450 0.000487805 
r83 447 387 0.055122 
r84 386 388 0.0717218 
r85 386 387 1.5 
r86 385 410 0.104738 
r87 384 411 0.10517 
r88 384 385 1.433 
r89 383 410 0.0226815 
r90 382 445 0.00292683 
r91 442 382 0.0526829 
r92 381 383 0.0723175 
r93 381 382 1.5 
r94 380 409 0.107692 
r95 379 410 0.104738 
r96 379 380 1.434 
r97 378 409 0.0233358 
r98 377 440 0.00536585 
r99 437 377 0.0502439 
r100 376 378 0.0683519 
r101 376 377 1.5 
r102 374 409 0.107692 
r103 374 375 1.392 
r104 373 375 0.0672421 
r105 433 372 0.0521951 
r106 371 373 0.112802 
r107 371 372 3 
r108 367 457 0.130323 
r109 366 369 0.153548 
r110 366 367 0.02 
r111 363 431 6 
r112 361 369 0.02 
r113 361 363 0.132903 
r114 360 431 3.99613 
r115 359 360 0.026898 
r116 355 359 0.10143 
r117 355 310 0.106667 
r118 301 349 1.85294 
r119 300 341 5.05882 
r120 299 341 5.05882 
r121 298 333 5.05882 
r122 297 333 5.05882 
r123 296 325 5.05882 
r124 295 325 5.05882 
r125 294 317 5.05882 
r126 293 317 5.05882 
r127 292 311 1.85294 
r128 287 301 3.88985 
r129 287 290 183.96 
r130 282 300 3.88985 
r131 282 285 183.96 
r132 277 299 3.88985 
r133 277 280 183.96 
r134 272 298 3.88985 
r135 272 275 183.96 
r136 267 297 3.88985 
r137 267 270 183.96 
r138 262 296 3.88985 
r139 262 265 183.96 
r140 257 295 3.88985 
r141 257 260 183.96 
r142 252 294 3.88985 
r143 252 255 183.96 
r144 247 293 3.88985 
r145 247 250 183.96 
r146 242 292 3.88985 
r147 242 245 183.96 
r148 349 171 0.00142683 
r149 461 171 3 
r150 341 153 0.00142683 
r151 455 153 3 
r152 333 128 0.00142683 
r153 450 128 3 
r154 341 117 0.0277856 
r155 452 117 3 
r156 325 92 0.00142683 
r157 445 92 3 
r158 333 81 0.0277856 
r159 447 81 3 
r160 317 56 0.00142683 
r161 440 56 3 
r162 325 45 0.0277856 
r163 442 45 3 
r164 311 20 0.00142683 
r165 433 20 3 
r166 317 9 0.0277856 
r167 437 9 3 
.ends

.subckt PM_PT3T01%VSSO 408 410 441 754 758 765 794 801 808 827 829 834 843 849
+ 855 861 870 876 885 891 897 906 912 918 927 933 945 994 1000 1004 1010
c0 1010 0 31.6592f
c1 997 0 1.99786f
c2 994 0 45.3148f
c3 977 0 7.93618f
c4 975 0 6.97364f
c5 970 0 6.99784f
c6 965 0 6.99831f
c7 960 0 6.99822f
c8 955 0 6.99883f
c9 945 0 0.00391448f
c10 940 0 8.95235f
c11 933 0 0.342408f
c12 918 0 1.36597f
c13 912 0 1.40025f
c14 897 0 1.35721f
c15 891 0 1.35624f
c16 876 0 1.34294f
c17 861 0 1.22309f
c18 855 0 1.08373f
c19 849 0 0.838455f
c20 834 0 1.37163f
c21 832 0 0.19571f
c22 829 0 0.00100381f
c23 827 0 8.25608e-19
c24 825 0 8.96457f
c25 813 0 7.85536f
c26 807 0 1.27875f
c27 797 0 1.65707f
c28 794 0 58.2583f
c29 761 0 1.32473f
c30 758 0 10.6388f
c31 746 0 0.101817f
c32 740 0 4.52206f
c33 737 0 0.114889f
c34 736 0 0.0401332f
c35 735 0 1.50334f
c36 733 0 0.0508991f
c37 732 0 0.316672f
c38 731 0 0.609572f
c39 727 0 0.521534f
c40 721 0 0.708327f
c41 719 0 0.0309889f
c42 718 0 3.24523f
c43 716 0 0.383003f
c44 715 0 0.713156f
c45 714 0 0.303464f
c46 713 0 3.27963f
c47 712 0 0.383249f
c48 711 0 1.83396f
c49 709 0 0.0561467f
c50 708 0 0.18317f
c51 707 0 0.335343f
c52 674 0 0.122915f
c53 673 0 8.96117f
c54 640 0 0.269869f
c55 636 0 7.03694f
c56 633 0 0.146306f
c57 441 0 0.420824f
c58 429 0 0.867853f
c59 427 0 0.101171f
c60 425 0 0.228551f
c61 423 0 1.45716f
c62 422 0 0.0300181f
c63 410 0 0.760534f
c64 409 0 0.106741f
c65 408 0 0.34681f
c66 407 0 0.192908f
c67 404 0 0.0481945f
c68 403 0 0.437966f
c69 390 0 0.11401f
c70 317 0 5.2661f
c71 284 0 14.0366f
c72 234 0 14.047f
c73 184 0 14.047f
c74 134 0 14.047f
c75 84 0 14.0469f
c76 10 0 0.146306f
r77 1008 1010 0.00282778 
r78 1007 1008 0.355444 
r79 1004 1007 0.00283333 
r80 999 1001 0.0213115 
r81 999 1000 0.02 
r82 997 999 0.00327869 
r83 991 992 0.166203 
r84 990 991 0.0396791 
r85 989 990 0.043262 
r86 988 989 0.0347594 
r87 987 988 0.0194118 
r88 986 987 0.0935829 
r89 985 986 0.0253476 
r90 984 985 0.0252406 
r91 983 984 0.0447059 
r92 982 983 0.0226738 
r93 981 997 0.02 
r94 981 982 0.114225 
r95 949 950 0.0140639 
r96 944 945 0.0126606 
r97 977 942 0.0113761 
r98 940 942 0.0638298 
r99 937 992 2 
r100 933 937 0.000380952 
r101 921 991 0.6 
r102 918 921 0.285 
r103 915 990 0.6 
r104 912 915 0.32 
r105 900 989 0.6 
r106 897 900 0.36 
r107 894 988 0.6 
r108 891 894 0.37 
r109 879 986 0.6 
r110 876 879 0.3225 
r111 864 985 0.6 
r112 861 864 0.325 
r113 858 984 0.6 
r114 855 858 0.3425 
r115 852 983 0.75 
r116 849 852 0.04 
r117 837 982 0.6 
r118 834 837 0.365 
r119 827 944 0.013211 
r120 940 827 0.000917431 
r121 825 827 0.000913242 
r122 825 949 0.0638298 
r123 813 949 0.0113242 
r124 811 813 0.0327869 
r125 810 811 0.029258 
r126 807 810 0.0131449 
r127 807 808 0.02 
r128 804 1008 0.357143 
r129 801 804 0.21 
r130 799 994 0.00544385 
r131 992 799 0.0345455 
r132 797 799 1 
r133 797 801 0.445 
r134 792 794 0.00612761 
r135 792 977 0.0327869 
r136 927 790 0.130435 
r137 790 975 0.00301741 
r138 972 790 0.00301741 
r139 788 790 0.0266667 
r140 788 792 0.0287785 
r141 906 787 0.130435 
r142 787 970 0.00301741 
r143 967 787 0.00301741 
r144 785 787 0.0266667 
r145 785 788 0.0242129 
r146 885 784 0.130435 
r147 784 965 0.00301741 
r148 962 784 0.00301741 
r149 782 784 0.0266667 
r150 782 785 0.0242129 
r151 781 782 0.000615582 
r152 870 780 0.130435 
r153 780 960 0.00301741 
r154 957 780 0.00301741 
r155 778 780 0.0266667 
r156 778 781 0.0235973 
r157 843 777 0.130435 
r158 777 955 0.00301741 
r159 952 777 0.00301741 
r160 775 777 0.0266667 
r161 775 778 0.0242129 
r162 774 810 0.02 
r163 774 775 0.0277012 
r164 811 771 0.446124 
r165 768 1007 0.357143 
r166 765 768 0.21 
r167 763 1003 0.144162 
r168 1001 763 0.0334426 
r169 761 763 1 
r170 761 765 0.445 
r171 749 832 3 
r172 746 749 0.0536842 
r173 739 746 0.02 
r174 739 740 6.36632 
r175 736 737 0.1275 
r176 735 736 0.0448391 
r177 734 735 2.75862 
r178 732 734 0.044715 
r179 732 733 0.466667 
r180 731 733 0.0450432 
r181 1003 731 1.29371 
r182 727 746 0.02 
r183 727 728 0.737895 
r184 723 945 0.230275 
r185 721 940 0.210275 
r186 719 832 0.109474 
r187 717 829 0.229041 
r188 717 718 0.0863581 
r189 715 825 0.209132 
r190 715 716 0.0863581 
r191 723 713 0.0861375 
r192 713 714 0.132033 
r193 721 712 0.0861375 
r194 719 711 0.0420103 
r195 710 711 3.01467 
r196 708 710 0.0446983 
r197 708 709 0.278667 
r198 707 709 0.0447588 
r199 674 827 0.128 
r200 673 714 0.0473573 
r201 673 827 0.126 
r202 640 674 0.0473573 
r203 718 640 0.132033 
r204 636 827 0.126 
r205 634 827 0.128 
r206 633 634 0.0473573 
r207 633 716 0.250407 
r208 740 431 6 
r209 987 429 0.75 
r210 737 427 3 
r211 441 425 0.0610526 
r212 728 425 2 
r213 422 429 0.437895 
r214 422 423 0.0407126 
r215 409 431 0.0413535 
r216 409 410 1.14783 
r217 407 408 0.221176 
r218 403 407 0.0446983 
r219 403 404 0.608235 
r220 401 404 0.0446983 
r221 401 423 2.01647 
r222 390 707 0.6025 
r223 390 427 0.0265396 
r224 320 758 0.0419737 
r225 754 320 0.0413851 
r226 781 320 0.00128205 
r227 771 317 2.21804 
r228 317 1001 0.6 
r229 927 284 0.00313778 
r230 975 284 0.0652174 
r231 942 273 0.0141284 
r232 273 944 0.0652174 
r233 906 234 0.00313778 
r234 970 234 0.0652174 
r235 224 927 0.00313778 
r236 972 224 0.0652174 
r237 885 184 0.00313778 
r238 965 184 0.0652174 
r239 174 906 0.00313778 
r240 967 174 0.0652174 
r241 870 134 0.00313778 
r242 960 134 0.0652174 
r243 124 885 0.00313778 
r244 962 124 0.0652174 
r245 843 84 0.00313778 
r246 955 84 0.0652174 
r247 74 870 0.00313778 
r248 957 74 0.0652174 
r249 34 829 0.0126027 
r250 827 34 0.0131507 
r251 950 34 0.0652174 
r252 24 843 0.00313778 
r253 952 24 0.0652174 
r254 10 712 0.250407 
r255 10 636 0.0473573 
.ends

.subckt PM_PT3T01%U15_ngate 56 63 70 77 85 93 141 147
c0 192 0 16.505f
c1 185 0 0.521777f
c2 180 0 1.00197f
c3 178 0 0.0560832f
c4 177 0 6.96313f
c5 176 0 4.81172f
c6 173 0 0.195375f
c7 170 0 0.463651f
c8 168 0 0.100464f
c9 149 0 0.584276f
c10 148 0 0.161917f
c11 147 0 3.04886f
c12 141 0 3.04886f
c13 108 0 0.134458f
c14 105 0 1.31978f
c15 104 0 0.134389f
c16 101 0 0.815491f
c17 100 0 0.0377296f
c18 99 0 0.0461791f
c19 98 0 0.0265254f
c20 97 0 0.0265254f
c21 93 0 0.969008f
c22 90 0 0.128939f
c23 89 0 1.63547f
c24 85 0 1.26111f
c25 82 0 0.0804526f
c26 81 0 0.252089f
c27 77 0 1.33816f
c28 74 0 0.348431f
c29 70 0 1.42004f
c30 67 0 0.25093f
c31 63 0 1.459f
c32 61 0 0.0503336f
c33 60 0 0.292203f
c34 56 0 1.43019f
c35 26 0 0.851302f
r36 191 192 0.397333 
r37 188 191 7.02133 
r38 180 183 0.0698008 
r39 180 199 1.5 
r40 177 183 0.02 
r41 177 178 8.927 
r42 175 178 0.0451545 
r43 175 176 7.7397 
r44 188 173 6 
r45 171 173 6 
r46 170 176 0.0448752 
r47 170 171 0.582667 
r48 166 168 0.0755556 
r49 159 166 0.02 
r50 185 156 0.00142683 
r51 153 185 0.0277856 
r52 149 185 5.05882 
r53 148 185 5.05882 
r54 143 149 3.88985 
r55 143 147 183.96 
r56 138 148 3.88985 
r57 138 141 183.96 
r58 108 118 0.0370021 
r59 168 108 6 
r60 105 164 2.59143 
r61 105 192 6 
r62 164 104 6 
r63 159 101 1.53143 
r64 101 191 6 
r65 99 104 0.0613333 
r66 92 93 1.2375 
r67 91 100 0.0310989 
r68 90 92 0.044713 
r69 90 91 0.152258 
r70 89 100 0.0112231 
r71 88 99 0.0447675 
r72 88 89 3.52 
r73 118 85 1.6275 
r74 83 85 1.28 
r75 81 100 0.0310989 
r76 81 82 0.301935 
r77 76 82 0.044713 
r78 76 77 1.2375 
r79 75 98 0.0338756 
r80 74 83 0.0446983 
r81 74 75 0.51 
r82 69 98 0.00880368 
r83 69 70 1.28 
r84 68 97 0.0338756 
r85 67 98 0.0338756 
r86 67 68 0.43 
r87 62 97 0.00880368 
r88 62 63 1.415 
r89 60 97 0.0338756 
r90 60 61 0.51 
r91 55 61 0.0446983 
r92 55 56 1.415 
r93 26 199 0.000506116 
r94 26 156 3 
r95 8 26 0.0192324 
r96 8 153 3 
.ends

.subckt PM_PT3T01%U27_U72_pgate 47 49 60 71 95 101 106
c0 192 0 0.414146f
c1 189 0 0.970979f
c2 187 0 0.223302f
c3 185 0 0.150322f
c4 183 0 15.9649f
c5 177 0 0.893431f
c6 165 0 6.02598f
c7 163 0 0.0944101f
c8 162 0 0.211667f
c9 158 0 0.784241f
c10 156 0 0.0612167f
c11 155 0 0.12178f
c12 154 0 7.07331f
c13 145 0 0.730208f
c14 138 0 0.14682f
c15 137 0 0.0573523f
c16 132 0 0.0940331f
c17 128 0 0.0235939f
c18 127 0 0.0407452f
c19 125 0 0.0713978f
c20 122 0 2.25044f
c21 120 0 0.060186f
c22 119 0 0.337715f
c23 113 0 0.0511886f
c24 110 0 0.326229f
c25 106 0 1.509f
c26 101 0 0.973496f
c27 99 0 0.0409969f
c28 98 0 0.375657f
c29 97 0 0.163685f
c30 95 0 1.51663f
c31 71 0 2.47474f
c32 65 0 1.55058f
c33 60 0 2.25489f
c34 58 0 0.0527619f
c35 57 0 0.401099f
c36 45 0 5.10206f
c37 36 0 4.86079f
c38 35 0 0.39517f
c39 29 0 0.40535f
c40 26 0 0.956666f
c41 23 0 0.393875f
r42 183 185 6 
r43 168 170 6 
r44 165 168 8.70933 
r45 165 185 6 
r46 162 170 0.0112 
r47 162 163 0.0514821 
r48 160 192 0.219024 
r49 189 160 0.164878 
r50 158 160 2 
r51 157 158 0.218765 
r52 155 157 0.0574078 
r53 155 156 0.149677 
r54 154 156 0.0446983 
r55 163 154 10.3252 
r56 150 187 6 
r57 147 183 3.36774 
r58 180 147 11.3948 
r59 145 147 6 
r60 145 150 1.15143 
r61 137 138 0.12 
r62 134 137 0.0451268 
r63 130 187 0.218571 
r64 129 132 0.0785714 
r65 129 130 0.02 
r66 121 132 0.02 
r67 121 122 3.30571 
r68 119 122 0.0461631 
r69 119 120 0.30026 
r70 114 128 0.0327921 
r71 113 128 0.0327921 
r72 112 120 0.0449793 
r73 112 113 0.0967164 
r74 111 127 0.0343218 
r75 110 128 0.00972501 
r76 110 111 0.514286 
r77 105 127 0.00843222 
r78 105 106 1.59625 
r79 100 125 0.0200702 
r80 100 101 1.20375 
r81 98 127 0.0343218 
r82 98 99 0.614603 
r83 97 125 0.0982456 
r84 96 99 0.0452323 
r85 96 97 0.395385 
r86 114 95 1.59625 
r87 71 68 2.3375 
r88 138 68 6 
r89 134 65 2.67 
r90 65 180 6 
r91 64 71 2.0425 
r92 59 60 2.0425 
r93 58 64 0.0446983 
r94 57 59 0.0446983 
r95 57 58 0.51 
r96 45 49 394.95 
r97 192 44 2.81176 
r98 44 45 1.5 
r99 36 47 394.95 
r100 35 189 2.74706 
r101 35 36 1.5 
r102 33 49 394.95 
r103 32 33 1.5 
r104 177 29 0.219512 
r105 29 32 2.78235 
r106 26 177 0.164878 
r107 24 47 394.95 
r108 23 26 2.74706 
r109 23 24 1.5 
.ends

.subckt PM_PT3T01%U15_pgate 31 38 43 50 57 68 73 113 118 141 187 193
c0 208 0 2.86346f
c1 197 0 1.20506f
c2 193 0 0.00447021f
c3 187 0 0.00572036f
c4 176 0 15.8917f
c5 174 0 0.992437f
c6 171 0 0.785498f
c7 169 0 1.50192f
c8 165 0 1.49663f
c9 158 0 0.0544354f
c10 157 0 0.281237f
c11 151 0 0.994811f
c12 146 0 1.94812f
c13 143 0 0.0565315f
c14 142 0 0.188493f
c15 141 0 0.00280858f
c16 118 0 0.00894832f
c17 113 0 0.00924659f
c18 99 0 2.78611f
c19 96 0 1.17019f
c20 94 0 0.712525f
c21 93 0 2.5367f
c22 89 0 0.280191f
c23 85 0 0.028277f
c24 83 0 0.028277f
c25 81 0 0.0289103f
c26 80 0 0.232744f
c27 79 0 0.028277f
c28 78 0 0.0335876f
c29 73 0 1.45777f
c30 68 0 1.39196f
c31 65 0 0.344617f
c32 63 0 0.102424f
c33 61 0 0.45127f
c34 57 0 1.4976f
c35 54 0 0.287058f
c36 50 0 2.85917f
c37 48 0 0.0466521f
c38 47 0 0.286924f
c39 43 0 2.45618f
c40 38 0 2.22579f
c41 36 0 0.0505388f
c42 35 0 0.316019f
c43 31 0 2.20108f
r44 204 205 0.336 
r45 202 204 5.71733 
r46 179 208 6 
r47 205 176 4.80267 
r48 174 176 6 
r49 174 179 1.65857 
r50 171 197 6 
r51 169 193 1.43125 
r52 167 169 6 
r53 167 171 0.518356 
r54 165 187 1.4325 
r55 163 165 6 
r56 163 167 0.516164 
r57 157 159 0.0446983 
r58 157 158 0.2925 
r59 150 158 0.0446983 
r60 150 151 1.63125 
r61 145 208 3.87429 
r62 144 197 0.11625 
r63 143 144 0.0448998 
r64 142 145 0.0456127 
r65 142 143 0.183333 
r66 197 141 1.4375 
r67 99 118 4.4175 
r68 161 99 6 
r69 96 161 1.405 
r70 159 96 0.58875 
r71 96 205 6 
r72 94 155 1.395 
r73 94 204 6 
r74 93 113 4.545 
r75 155 93 6 
r76 151 91 6 
r77 146 89 6 
r78 146 86 2.26 
r79 86 202 6 
r80 84 118 1.3875 
r81 84 85 0.00880368 
r82 82 113 1.27 
r83 82 83 0.00880368 
r84 80 91 0.116143 
r85 80 81 0.0327397 
r86 77 89 0.215 
r87 77 78 0.0302706 
r88 72 73 1.3875 
r89 67 68 1.3625 
r90 66 85 0.0338756 
r91 65 72 0.0446983 
r92 65 66 0.51 
r93 64 83 0.0338756 
r94 63 85 0.0338756 
r95 63 64 0.2325 
r96 62 81 0.00977027 
r97 61 67 0.0448998 
r98 61 62 0.428889 
r99 56 81 0.0327397 
r100 56 57 1.3625 
r101 55 79 0.0338756 
r102 54 83 0.0338756 
r103 54 55 0.51 
r104 49 79 0.00880368 
r105 49 50 2.485 
r106 47 79 0.0338756 
r107 47 48 0.51 
r108 42 48 0.0446983 
r109 42 43 2.485 
r110 37 78 0.0302706 
r111 37 38 2.06 
r112 35 78 0.0119838 
r113 35 36 0.585714 
r114 30 36 0.0449572 
r115 30 31 2.06 
.ends

.subckt PM_PT3T01%U27_U71_UN_P_TOP 18 37 68 87 118 137 168 187 256 258 265 274
c0 402 0 2.37743f
c1 398 0 0.324866f
c2 397 0 0.325638f
c3 396 0 0.325638f
c4 395 0 0.325638f
c5 393 0 0.31181f
c6 392 0 0.326029f
c7 391 0 0.325638f
c8 390 0 0.325638f
c9 389 0 0.337763f
c10 387 0 6.11802f
c11 385 0 0.240856f
c12 383 0 15.8923f
c13 378 0 0.309607f
c14 377 0 0.309607f
c15 376 0 0.309607f
c16 375 0 0.309607f
c17 374 0 0.293407f
c18 372 0 0.309998f
c19 371 0 0.309607f
c20 370 0 0.309607f
c21 369 0 0.309862f
c22 367 0 6.01556f
c23 365 0 0.320239f
c24 363 0 5.75732f
c25 357 0 0.255392f
c26 355 0 0.839921f
c27 350 0 5.1235f
c28 347 0 0.135166f
c29 343 0 1.14555f
c30 338 0 6.17057f
c31 337 0 0.0840757f
c32 335 0 1.15575f
c33 329 0 3.55721f
c34 327 0 1.77447f
c35 326 0 0.0870957f
c36 322 0 0.842389f
c37 292 0 0.710435f
c38 289 0 0.467766f
c39 279 0 0.0712025f
c40 274 0 1.35431f
c41 267 0 0.0443925f
c42 266 0 0.161794f
c43 265 0 2.03107f
c44 251 0 5.08676f
c45 250 0 0.436714f
c46 221 0 4.93197f
c47 219 0 0.107369f
c48 217 0 0.133146f
c49 172 0 5.00292f
c50 170 0 0.129629f
c51 153 0 4.92483f
c52 151 0 0.105999f
c53 122 0 4.92483f
c54 120 0 0.105999f
c55 103 0 4.92712f
c56 101 0 0.106492f
c57 72 0 4.89543f
c58 70 0 0.105999f
c59 53 0 4.91984f
c60 51 0 0.105999f
c61 22 0 4.92483f
c62 20 0 0.105999f
c63 3 0 4.92483f
c64 1 0 0.105999f
r65 397 398 0.379902 
r66 396 397 0.32839 
r67 395 396 0.379902 
r68 392 393 0.379902 
r69 391 392 0.32839 
r70 390 391 0.379902 
r71 389 390 0.32839 
r72 387 389 0.383902 
r73 383 385 6 
r74 382 383 12.556 
r75 377 378 0.38039 
r76 376 377 0.327902 
r77 375 376 0.38039 
r78 374 375 0.327902 
r79 371 372 0.327902 
r80 370 371 0.38039 
r81 369 370 0.327902 
r82 367 369 0.376585 
r83 363 365 3 
r84 362 363 4.07484 
r85 359 385 6 
r86 357 362 0.0447341 
r87 357 359 0.0583051 
r88 353 355 3 
r89 350 353 6.12 
r90 344 355 1.09622 
r91 342 343 0.757419 
r92 340 395 0.175707 
r93 393 340 0.152683 
r94 338 340 0.6 
r95 337 343 0.0423631 
r96 337 338 1.93877 
r97 336 365 0.0244776 
r98 335 342 0.0446983 
r99 335 336 0.663871 
r100 331 374 0.219512 
r101 372 331 0.160878 
r102 329 331 0.666667 
r103 347 329 0.477037 
r104 327 347 0.0898765 
r105 326 344 0.052494 
r106 326 327 1.08593 
r107 402 289 6 
r108 350 286 6 
r109 402 286 2.5675 
r110 286 382 6 
r111 285 382 0.64 
r112 322 285 6 
r113 322 282 1.41429 
r114 282 292 6 
r115 280 279 0.08 
r116 279 289 0.41 
r117 278 292 1.23714 
r118 280 274 1.1475 
r119 267 278 0.0447675 
r120 266 268 0.0447588 
r121 266 267 0.213333 
r122 268 265 2.44 
r123 251 256 394.95 
r124 250 387 2.85294 
r125 250 251 1.5 
r126 222 389 2.04706 
r127 221 258 394.95 
r128 221 222 4.2601 
r129 220 369 2.04706 
r130 219 258 394.95 
r131 219 220 4.2601 
r132 218 367 2.07059 
r133 217 256 394.95 
r134 217 218 4.2601 
r135 173 398 2.07647 
r136 172 187 394.95 
r137 172 173 4.2601 
r138 171 378 2.07647 
r139 170 187 394.95 
r140 170 171 4.2601 
r141 154 397 2.07647 
r142 153 168 394.95 
r143 153 154 4.2601 
r144 152 377 2.07647 
r145 151 168 394.95 
r146 151 152 4.2601 
r147 123 396 2.07647 
r148 122 137 394.95 
r149 122 123 4.2601 
r150 121 376 2.07647 
r151 120 137 394.95 
r152 120 121 4.2601 
r153 104 395 2.07647 
r154 103 118 394.95 
r155 103 104 4.2601 
r156 102 375 2.07647 
r157 101 118 394.95 
r158 101 102 4.2601 
r159 73 393 2.07647 
r160 72 87 394.95 
r161 72 73 4.2601 
r162 71 374 2.07647 
r163 70 87 394.95 
r164 70 71 4.2601 
r165 54 392 2.07647 
r166 53 68 394.95 
r167 53 54 4.2601 
r168 52 372 2.07647 
r169 51 68 394.95 
r170 51 52 4.2601 
r171 23 391 2.07647 
r172 22 37 394.95 
r173 22 23 4.2601 
r174 21 371 2.07647 
r175 20 37 394.95 
r176 20 21 4.2601 
r177 4 390 2.07647 
r178 3 18 394.95 
r179 3 4 4.2601 
r180 2 370 2.07647 
r181 1 18 394.95 
r182 1 2 4.2601 
.ends
