* File: pc3o01hv.dist.sp.pex
* Created: Sun Jul  4 12:37:32 2010
* Program "Calibre xRC"
* Version "v2008.4_19.14"
* Nominal Temperature: 27C
* Circuit Temperature: 27C
* 
.subckt PM_PC3O01HV%noxref_2 8 18
c0 20 0 4.64656f
c1 18 0 1.0414f
c2 8 0 5.8318f
r3 18 20 0.131053 
r4 20 8 0.144632 
.ends

.subckt PM_PC3O01HV%PAD 21 50 91 120 161 190 254 278 302 326 356 362 431 470
+ 494 501
c0 509 0 28.1624f
c1 502 0 83.6826f
c2 501 0 64.3341f
c3 498 0 159.215f
c4 493 0 0.992829f
c5 488 0 12.1276f
c6 476 0 12.9939f
c7 467 0 0.118304f
c8 465 0 206.065f
c9 450 0 15.3329f
c10 439 0 46.9405f
c11 434 0 65.4578f
c12 432 0 15.8603f
c13 431 0 1.01632f
c14 430 0 0.217689f
c15 362 0 13.1526f
c16 356 0 13.106f
c17 326 0 13.1036f
c18 302 0 13.117f
c19 278 0 13.3644f
c20 254 0 13.1036f
c21 212 0 7.52869f
c22 190 0 2.98439f
c23 173 0 6.78396f
c24 161 0 2.98493f
c25 144 0 6.78396f
c26 120 0 2.98342f
c27 103 0 6.78396f
c28 91 0 2.98342f
c29 74 0 6.78396f
c30 50 0 2.98341f
c31 33 0 6.78396f
c32 21 0 2.98342f
c33 4 0 6.78396f
r34 509 510 0.0174349 
r35 508 509 0.100972 
r36 507 508 0.118407 
r37 506 507 0.056883 
r38 505 506 0.061524 
r39 504 505 0.118407 
r40 503 504 0.118407 
r41 501 502 0.0124825 
r42 499 501 0.000593149 
r43 498 499 0.0669731 
r44 493 494 0.00916 
r45 488 509 0.06 
r46 476 506 0.015 
r47 467 470 0.00916 
r48 467 493 2 
r49 465 476 0.0264274 
r50 463 465 0.147454 
r51 463 464 0.0288462 
r52 457 458 0.00752787 
r53 456 457 0.021023 
r54 454 456 0.000537705 
r55 454 498 0.00162999 
r56 452 454 0.000537705 
r57 450 452 0.0285508 
r58 441 493 0.1388 
r59 440 441 0.132996 
r60 439 440 0.0171733 
r61 436 437 0.0171733 
r62 435 436 0.0171733 
r63 434 435 0.0171733 
r64 433 439 0.0142401 
r65 433 437 0.00293318 
r66 432 464 0.00646891 
r67 432 434 0.00818451 
r68 430 488 0.217989 
r69 430 431 0.0147368 
r70 351 356 0.0072093 
r71 434 351 0.0566038 
r72 349 362 0.0072093 
r73 440 349 0.0566038 
r74 322 326 0.0072093 
r75 439 322 0.0566038 
r76 298 302 0.0072093 
r77 437 298 0.0566038 
r78 274 278 0.0072093 
r79 436 274 0.0566038 
r80 250 254 0.0072093 
r81 435 250 0.0566038 
r82 230 233 0.0022831 
r83 458 230 0.0375475 
r84 230 499 0.00547945 
r85 456 229 0.00210084 
r86 227 229 0.000537705 
r87 452 227 0.00210084 
r88 229 218 0.0105115 
r89 457 218 0.00712251 
r90 214 233 0.0187738 
r91 218 214 0.00376393 
r92 458 214 0.00712251 
r93 212 227 0.0142754 
r94 450 212 0.00356125 
r95 502 197 0.345778 
r96 196 508 0.0220132 
r97 196 197 0.319822 
r98 190 177 0.00249413 
r99 197 177 0.0425532 
r100 173 190 0.00249413 
r101 197 173 0.0425532 
r102 502 168 0.345778 
r103 167 510 0.0220132 
r104 167 168 0.319822 
r105 161 148 0.00249413 
r106 168 148 0.0425532 
r107 144 161 0.00249413 
r108 168 144 0.0425532 
r109 502 127 0.345778 
r110 126 505 0.0220132 
r111 126 127 0.319822 
r112 120 107 0.00249413 
r113 127 107 0.0425532 
r114 103 120 0.00249413 
r115 127 103 0.0425532 
r116 502 98 0.345778 
r117 97 507 0.0220132 
r118 97 98 0.319822 
r119 91 78 0.00249413 
r120 98 78 0.0425532 
r121 74 91 0.00249413 
r122 98 74 0.0425532 
r123 502 57 0.345778 
r124 56 503 0.0220132 
r125 56 57 0.319822 
r126 50 37 0.00249413 
r127 57 37 0.0425532 
r128 33 50 0.00249413 
r129 57 33 0.0425532 
r130 502 28 0.345778 
r131 27 504 0.0220132 
r132 27 28 0.319822 
r133 21 8 0.00249413 
r134 28 8 0.0425532 
r135 4 21 0.00249413 
r136 28 4 0.0425532 
.ends

.subckt PM_PC3O01HV%VSS 654 868 937 960 994 1003 1013 1016 1022
c0 1022 0 89.3941f
c1 1013 0 44.8301f
c2 1002 0 79.7159f
c3 1000 0 2.67751f
c4 994 0 0.00258688f
c5 992 0 1.16412f
c6 957 0 1.87154f
c7 949 0 14.7162f
c8 934 0 1.45065f
c9 898 0 0.180444f
c10 894 0 24.8176f
c11 878 0 0.0769607f
c12 877 0 0.0432851f
c13 876 0 1.89258f
c14 875 0 0.0232103f
c15 873 0 0.576697f
c16 868 0 1.97506f
c17 863 0 4.3691f
c18 862 0 2.30016f
c19 860 0 3.11758f
c20 858 0 0.146915f
c21 855 0 19.0567f
c22 854 0 3.98597f
c23 853 0 0.0389222f
c24 852 0 1.74843f
c25 846 0 8.71506f
c26 842 0 0.194013f
c27 841 0 0.0916283f
c28 840 0 1.67316f
c29 711 0 1.93193f
c30 694 0 1.33586f
c31 692 0 0.20694f
c32 690 0 0.270234f
c33 687 0 24.3388f
c34 684 0 2.40235f
c35 669 0 2.40893f
c36 663 0 2.03808f
c37 659 0 0.135881f
c38 658 0 2.46793f
c39 657 0 0.117466f
c40 656 0 2.24436f
c41 654 0 0.348576f
c42 652 0 0.0353428f
c43 651 0 0.0697022f
c44 647 0 6.91954f
c45 595 0 0.162892f
c46 593 0 0.721903f
c47 591 0 0.204021f
c48 566 0 2.94565f
c49 552 0 3.0753f
c50 550 0 0.031054f
c51 546 0 3.12812f
c52 545 0 0.161087f
c53 530 0 4.37629f
c54 527 0 3.05571f
r55 1020 1022 0.000702051 
r56 1019 1020 0.0832563 
r57 1016 1019 0.000703354 
r58 1012 1013 0.00318245 
r59 1009 1010 0.0486142 
r60 1008 1009 0.153061 
r61 1007 1008 0.107717 
r62 1000 1012 0.461538 
r63 992 994 1.28857 
r64 992 1009 1.5 
r65 989 1008 0.047619 
r66 964 1012 0.00119641 
r67 1010 964 0.110269 
r68 962 964 0.428571 
r69 960 962 0.189 
r70 957 960 0.013 
r71 957 1020 0.131579 
r72 953 954 0.572589 
r73 952 953 1.12122 
r74 949 952 0.628223 
r75 949 1010 0.3 
r76 945 946 0.8265 
r77 941 1007 0.09001 
r78 1003 941 0.00438684 
r79 939 941 0.428571 
r80 937 939 0.189 
r81 934 937 0.013 
r82 934 1019 0.131579 
r83 876 989 2.436 
r84 876 877 0.0338756 
r85 874 989 0.052 
r86 874 875 0.0175768 
r87 872 929 3 
r88 871 878 0.0338756 
r89 871 872 0.079 
r90 870 877 0.0338756 
r91 868 927 2.59036 
r92 867 878 0.00880368 
r93 867 868 0.882 
r94 866 877 0.00880368 
r95 866 868 1.062 
r96 864 1002 0.0175768 
r97 864 868 0.6945 
r98 863 878 0.0338756 
r99 863 868 1.7935 
r100 862 1002 0.0270064 
r101 861 875 0.0270064 
r102 861 862 4.09263 
r103 858 873 0.0577061 
r104 854 1002 0.0175768 
r105 852 875 0.0175768 
r106 852 853 2.364 
r107 851 853 0.0446983 
r108 849 1000 1.518 
r109 848 1000 0.426 
r110 846 927 1.08482 
r111 845 992 0.482857 
r112 841 855 0.087 
r113 840 841 0.0446983 
r114 840 851 1.944 
r115 711 920 3 
r116 708 868 1.07807 
r117 842 708 1.06072 
r118 708 715 1 
r119 854 702 1.0165 
r120 855 702 1.2605 
r121 702 898 3 
r122 920 694 0.231111 
r123 953 694 1.5 
r124 929 692 0.000888889 
r125 952 692 3 
r126 690 927 3 
r127 954 690 3 
r128 687 945 0.3056 
r129 687 1007 0.125 
r130 686 898 0.0005 
r131 945 686 3 
r132 684 715 0.00750563 
r133 713 684 0.056042 
r134 946 684 0.24 
r135 682 860 0.102486 
r136 858 682 0.078239 
r137 894 682 1 
r138 680 894 0.9634 
r139 680 713 0.020015 
r140 669 872 1.291 
r141 849 669 0.0446983 
r142 668 711 0.835122 
r143 667 711 0.56878 
r144 662 663 1.37048 
r145 659 668 0.0448242 
r146 659 660 0.678222 
r147 658 663 0.0447675 
r148 658 660 0.650667 
r149 657 667 0.0446983 
r150 656 662 0.0447067 
r151 656 657 1.45854 
r152 653 654 0.587143 
r153 845 652 0.0446983 
r154 651 653 0.0446983 
r155 651 652 0.225714 
r156 647 870 1.37 
r157 647 848 0.0446983 
r158 594 595 0.147619 
r159 590 591 0.14988 
r160 846 590 0.0380723 
r161 587 589 0.143333 
r162 842 586 0.0385542 
r163 584 586 0.14506 
r164 868 583 0.159 
r165 566 868 0.159 
r166 565 595 0.02 
r167 565 583 1.247 
r168 564 591 0.02 
r169 564 566 1.243 
r170 868 563 0.192 
r171 561 868 0.192 
r172 560 561 0.342 
r173 868 560 0.192 
r174 558 868 0.192 
r175 557 558 0.342 
r176 868 557 0.192 
r177 555 868 0.192 
r178 554 555 0.342 
r179 868 554 0.192 
r180 552 868 0.192 
r181 551 594 0.02 
r182 551 563 1.214 
r183 550 593 0.04 
r184 550 552 0.243 
r185 548 590 0.02 
r186 548 593 0.938734 
r187 546 594 0.0380952 
r188 546 860 4.80524 
r189 545 873 0.555238 
r190 545 589 0.0380952 
r191 868 541 0.159 
r192 539 868 0.159 
r193 538 539 0.408 
r194 868 538 0.159 
r195 536 868 0.159 
r196 535 536 0.408 
r197 868 535 0.159 
r198 533 868 0.159 
r199 532 533 0.408 
r200 868 532 0.159 
r201 530 868 0.159 
r202 529 589 0.02 
r203 529 541 1.247 
r204 528 586 0.02 
r205 528 530 1.243 
r206 527 587 0.02 
r207 526 584 0.02 
r208 526 527 4.69271 
.ends

.subckt PM_PC3O01HV%U29_U74$9_gate 90 95 211 216 341 346 351 356 361 367 402
c0 511 0 0.461642f
c1 506 0 0.459653f
c2 501 0 0.460813f
c3 496 0 0.461476f
c4 482 0 13.318f
c5 474 0 0.69051f
c6 462 0 0.752062f
c7 461 0 0.746429f
c8 456 0 0.72829f
c9 451 0 0.725264f
c10 446 0 0.118493f
c11 445 0 0.574527f
c12 441 0 1.25029f
c13 439 0 1.26744f
c14 437 0 1.23398f
c15 435 0 1.18398f
c16 434 0 0.185385f
c17 433 0 9.70918f
c18 431 0 0.205788f
c19 429 0 5.22246f
c20 427 0 0.26709f
c21 425 0 0.637507f
c22 417 0 1.74611f
c23 415 0 0.474349f
c24 406 0 0.060459f
c25 405 0 0.112142f
c26 401 0 0.290636f
c27 393 0 0.534637f
c28 385 0 0.533732f
c29 379 0 0.299128f
c30 373 0 0.17009f
c31 372 0 0.607423f
c32 371 0 0.168772f
c33 370 0 0.605556f
c34 369 0 0.167363f
c35 368 0 0.536092f
c36 367 0 3.10097f
c37 361 0 3.04886f
c38 356 0 3.04886f
c39 351 0 3.04886f
c40 346 0 3.04886f
c41 341 0 3.10218f
c42 254 0 0.270156f
c43 226 0 0.967685f
c44 216 0 3.04886f
c45 215 0 0.167667f
c46 211 0 3.04886f
c47 210 0 0.166878f
c48 105 0 0.968335f
c49 95 0 3.04886f
c50 94 0 0.169123f
c51 90 0 3.04886f
c52 89 0 0.167231f
r53 479 482 13.4187 
r54 464 511 0.00195122 
r55 508 464 0.0536585 
r56 462 464 1.5 
r57 459 506 0.000487805 
r58 503 459 0.055122 
r59 457 459 1.5 
r60 457 461 0.0887598 
r61 454 501 0.00292683 
r62 498 454 0.0526829 
r63 452 454 1.5 
r64 452 456 0.0837598 
r65 449 496 0.00536585 
r66 493 449 0.0502439 
r67 447 449 1.5 
r68 447 451 0.0900098 
r69 443 445 0.125751 
r70 443 513 3 
r71 462 441 0.10751 
r72 441 461 1.1384 
r73 457 439 0.11001 
r74 439 456 1.1544 
r75 452 437 0.112093 
r76 437 451 1.1224 
r77 436 446 0.0276774 
r78 447 435 0.115122 
r79 435 436 1.452 
r80 433 445 0.0574761 
r81 433 434 8.6864 
r82 479 431 6 
r83 429 431 6 
r84 428 446 0.0171476 
r85 428 429 5.28681 
r86 489 427 0.0521951 
r87 425 427 3 
r88 424 446 0.0171476 
r89 424 425 0.0711111 
r90 423 434 0.0565114 
r91 423 425 0.135238 
r92 420 482 6 
r93 415 417 6 
r94 415 420 0.887742 
r95 414 417 3.24387 
r96 409 474 0.00142683 
r97 405 414 0.0446983 
r98 405 406 0.130323 
r99 401 406 0.0664522 
r100 401 402 0.0466667 
r101 373 474 1.85294 
r102 372 393 5.05882 
r103 371 393 5.05882 
r104 370 385 5.05882 
r105 369 385 5.05882 
r106 368 379 1.85294 
r107 363 373 3.88985 
r108 363 367 183.96 
r109 358 372 3.88985 
r110 358 361 183.96 
r111 353 371 3.88985 
r112 353 356 183.96 
r113 348 370 3.88985 
r114 348 351 183.96 
r115 343 369 3.88985 
r116 343 346 183.96 
r117 338 368 3.88985 
r118 338 341 183.96 
r119 393 273 0.00142683 
r120 511 273 3 
r121 513 254 0.00341463 
r122 254 409 3 
r123 221 226 5.05882 
r124 220 226 5.05882 
r125 215 221 3.88985 
r126 215 216 183.96 
r127 210 220 3.88985 
r128 210 211 183.96 
r129 385 181 0.00142683 
r130 501 181 3 
r131 226 170 0.00133393 
r132 503 170 3 
r133 145 226 0.0278113 
r134 506 145 3 
r135 393 134 0.0277856 
r136 508 134 3 
r137 100 105 5.05882 
r138 99 105 5.05882 
r139 94 100 3.88985 
r140 94 95 183.96 
r141 89 99 3.88985 
r142 89 90 183.96 
r143 379 60 0.00142683 
r144 489 60 3 
r145 105 49 0.00133393 
r146 493 49 3 
r147 24 105 0.0278113 
r148 496 24 3 
r149 385 13 0.0277856 
r150 498 13 3 
.ends

.subckt PM_PC3O01HV%U29_U37_r2 22 41 72 91 122 141 172 191 260 263 287
c0 423 0 0.85549f
c1 418 0 0.701631f
c2 414 0 0.32269f
c3 412 0 0.32269f
c4 411 0 0.32269f
c5 409 0 0.32269f
c6 408 0 0.306609f
c7 406 0 0.323081f
c8 405 0 0.32269f
c9 403 0 0.32269f
c10 399 0 5.92137f
c11 397 0 16.0485f
c12 390 0 0.309607f
c13 388 0 0.309607f
c14 387 0 0.309607f
c15 385 0 0.309607f
c16 384 0 0.293407f
c17 382 0 0.309998f
c18 381 0 0.309607f
c19 379 0 0.309607f
c20 375 0 6.02003f
c21 371 0 15.7729f
c22 363 0 0.295895f
c23 357 0 7.51608f
c24 351 0 0.23482f
c25 349 0 5.33576f
c26 341 0 0.392105f
c27 339 0 0.85084f
c28 338 0 0.8763f
c29 322 0 6.46464f
c30 320 0 0.0819429f
c31 318 0 0.34826f
c32 308 0 0.729771f
c33 293 0 5.68976f
c34 291 0 0.0752514f
c35 287 0 0.320649f
c36 286 0 0.0658877f
c37 255 0 5.08567f
c38 254 0 0.436714f
c39 251 0 0.337763f
c40 248 0 0.309862f
c41 225 0 4.93087f
c42 223 0 0.107369f
c43 221 0 0.129214f
c44 176 0 4.99458f
c45 174 0 0.127361f
c46 157 0 4.92236f
c47 155 0 0.105999f
c48 126 0 4.92236f
c49 124 0 0.105999f
c50 107 0 4.92465f
c51 105 0 0.106492f
c52 76 0 4.89076f
c53 74 0 0.105999f
c54 57 0 4.91695f
c55 55 0 0.105999f
c56 26 0 4.92236f
c57 24 0 0.105999f
c58 7 0 4.92236f
c59 5 0 0.105999f
r60 411 412 0.32839 
r61 408 409 0.32839 
r62 405 406 0.32839 
r63 404 405 0.18439 
r64 403 404 0.195512 
r65 399 401 0.199512 
r66 395 397 0.890667 
r67 395 423 6 
r68 387 388 0.327902 
r69 384 385 0.327902 
r70 381 382 0.327902 
r71 380 381 0.219512 
r72 379 380 0.160878 
r73 375 377 0.157073 
r74 370 371 13.472 
r75 367 370 0.357333 
r76 362 363 3 
r77 371 359 6 
r78 423 359 1.064 
r79 357 359 6 
r80 357 362 4.22645 
r81 354 418 6 
r82 367 351 6 
r83 349 351 6 
r84 349 354 5.18 
r85 348 418 0.462951 
r86 344 397 6 
r87 339 341 6 
r88 339 344 1.41161 
r89 337 338 0.579355 
r90 335 414 0.219512 
r91 412 335 0.16039 
r92 333 335 6 
r93 332 411 0.18439 
r94 409 332 0.195512 
r95 330 332 6 
r96 330 333 0.673171 
r97 329 408 0.18439 
r98 406 329 0.195512 
r99 327 329 6 
r100 327 330 0.708293 
r101 324 404 6 
r102 324 327 0.708293 
r103 322 324 0.708293 
r104 322 401 6 
r105 320 338 0.0424736 
r106 320 322 0.21561 
r107 319 363 0.022693 
r108 318 337 0.0446983 
r109 318 319 0.163871 
r110 313 370 6 
r111 310 395 13.4773 
r112 308 310 6 
r113 308 313 1.33 
r114 306 390 0.219512 
r115 388 306 0.160878 
r116 304 306 6 
r117 303 387 0.219512 
r118 385 303 0.160878 
r119 301 303 6 
r120 301 304 0.708293 
r121 300 384 0.219512 
r122 382 300 0.160878 
r123 298 300 6 
r124 298 301 0.708293 
r125 295 380 6 
r126 295 298 0.708293 
r127 293 295 0.708293 
r128 293 377 6 
r129 291 348 0.0454172 
r130 291 293 0.21561 
r131 290 341 0.643871 
r132 286 290 0.055223 
r133 286 287 0.109189 
r134 255 260 394.95 
r135 254 399 2.85294 
r136 254 255 1.5 
r137 251 403 0.32839 
r138 401 251 0.18439 
r139 248 379 0.327902 
r140 377 248 0.219512 
r141 226 251 2.04706 
r142 225 263 394.95 
r143 225 226 4.2601 
r144 224 248 2.04706 
r145 223 263 394.95 
r146 223 224 4.2601 
r147 222 375 2.07059 
r148 221 260 394.95 
r149 221 222 4.2601 
r150 177 414 2.07647 
r151 176 191 394.95 
r152 176 177 4.2601 
r153 175 390 2.07647 
r154 174 191 394.95 
r155 174 175 4.2601 
r156 158 412 2.07647 
r157 157 172 394.95 
r158 157 158 4.2601 
r159 156 388 2.07647 
r160 155 172 394.95 
r161 155 156 4.2601 
r162 127 411 2.07647 
r163 126 141 394.95 
r164 126 127 4.2601 
r165 125 387 2.07647 
r166 124 141 394.95 
r167 124 125 4.2601 
r168 108 409 2.07647 
r169 107 122 394.95 
r170 107 108 4.2601 
r171 106 385 2.07647 
r172 105 122 394.95 
r173 105 106 4.2601 
r174 77 408 2.07647 
r175 76 91 394.95 
r176 76 77 4.2601 
r177 75 384 2.07647 
r178 74 91 394.95 
r179 74 75 4.2601 
r180 58 406 2.07647 
r181 57 72 394.95 
r182 57 58 4.2601 
r183 56 382 2.07647 
r184 55 72 394.95 
r185 55 56 4.2601 
r186 27 405 2.07647 
r187 26 41 394.95 
r188 26 27 4.2601 
r189 25 381 2.07647 
r190 24 41 394.95 
r191 24 25 4.2601 
r192 8 403 2.07647 
r193 7 22 394.95 
r194 7 8 4.2601 
r195 6 379 2.07647 
r196 5 22 394.95 
r197 5 6 4.2601 
.ends

.subckt PM_PC3O01HV%pgate 43 45 64 66 73 80 89 117
c0 181 0 15.7602f
c1 174 0 1.0684f
c2 170 0 0.391813f
c3 167 0 0.916685f
c4 158 0 0.420458f
c5 153 0 0.143798f
c6 151 0 0.0712688f
c7 149 0 9.37046f
c8 147 0 4.43036f
c9 135 0 2.44062f
c10 131 0 1.24523f
c11 129 0 0.102921f
c12 128 0 0.57994f
c13 117 0 0.00479055f
c14 115 0 2.87412f
c15 106 0 15.693f
c16 102 0 0.0281334f
c17 100 0 0.0320259f
c18 99 0 0.221109f
c19 98 0 0.0274814f
c20 89 0 1.39804f
c21 86 0 0.333301f
c22 84 0 0.367229f
c23 80 0 1.10132f
c24 77 0 0.293889f
c25 73 0 2.02198f
c26 71 0 0.0451266f
c27 70 0 0.281251f
c28 66 0 2.09258f
c29 64 0 1.45036f
c30 41 0 5.10529f
c31 37 0 0.41942f
c32 34 0 0.97339f
c33 32 0 4.86528f
c34 31 0 0.388306f
c35 19 0 0.377345f
r36 158 181 0.361 
r37 156 158 6 
r38 153 181 6 
r39 151 153 0.179355 
r40 147 149 6 
r41 146 151 0.0460311 
r42 146 147 5.68667 
r43 145 149 9.48667 
r44 135 137 2.3 
r45 133 170 0.219512 
r46 167 133 0.164878 
r47 131 133 6 
r48 130 131 0.419512 
r49 129 145 0.0463653 
r50 128 130 0.0462628 
r51 128 129 0.31322 
r52 115 117 4.4175 
r53 135 108 6 
r54 156 106 3.22267 
r55 137 106 6 
r56 137 103 1.405 
r57 103 115 6 
r58 101 117 1.3875 
r59 101 102 0.00880368 
r60 99 108 0.118614 
r61 99 100 0.0331099 
r62 88 89 1.28 
r63 87 102 0.0338756 
r64 86 93 0.0446983 
r65 86 87 0.51 
r66 85 100 0.00945187 
r67 84 88 0.0448998 
r68 84 85 0.431111 
r69 79 100 0.0331099 
r70 79 80 1.28 
r71 78 98 0.0338756 
r72 77 102 0.0338756 
r73 77 78 0.5825 
r74 72 98 0.00880368 
r75 72 73 2.485 
r76 70 98 0.0338756 
r77 70 71 0.51 
r78 65 71 0.0446983 
r79 65 66 2.485 
r80 93 64 1.3875 
r81 41 45 394.95 
r82 40 41 1.5 
r83 174 37 0.219512 
r84 37 40 2.81176 
r85 34 174 0.16439 
r86 32 43 394.95 
r87 31 34 2.74706 
r88 31 32 1.5 
r89 29 45 394.95 
r90 170 28 2.78235 
r91 28 29 1.5 
r92 20 43 394.95 
r93 19 167 2.74706 
r94 19 20 1.5 
.ends

.subckt PM_PC3O01HV%VDDO 875 880 887 894 901 908 915 922 1017 1020 1027 1034
+ 1042 1049 1098 1281 1334 1338 1341 1346 1352 1359 1380 1408 1422 1430 1437 1483
+ 1492 1521 1526
c0 1526 0 20.5533f
c1 1518 0 4.70941f
c2 1509 0 6.80765f
c3 1500 0 8.85211f
c4 1495 0 7.50311f
c5 1492 0 44.5906f
c6 1480 0 2.98997f
c7 1444 0 1.76818f
c8 1437 0 2.74753f
c9 1434 0 3.06976f
c10 1419 0 0.505057f
c11 1412 0 29.8033f
c12 1411 0 1.97227f
c13 1408 0 62.7338f
c14 1407 0 2.02299f
c15 1358 0 50.711f
c16 1349 0 0.678684f
c17 1346 0 3.02759f
c18 1338 0 2.50056f
c19 1325 0 1.97376f
c20 1323 0 0.26257f
c21 1313 0 0.149549f
c22 1311 0 0.38718f
c23 1305 0 0.101711f
c24 1295 0 0.193678f
c25 1290 0 1.85694f
c26 1285 0 0.0602345f
c27 1284 0 0.115552f
c28 1280 0 0.290708f
c29 1248 0 10.2691f
c30 1247 0 9.76182f
c31 1109 0 0.336998f
c32 1098 0 0.0192351f
c33 1094 0 11.4987f
c34 1073 0 0.206145f
c35 1069 0 2.03641f
c36 1063 0 7.59487f
c37 1062 0 8.8377f
c38 1061 0 0.025362f
c39 1060 0 0.00822238f
c40 1059 0 0.025362f
c41 1055 0 0.0926813f
c42 1049 0 0.765849f
c43 1046 0 0.296901f
c44 1042 0 0.954324f
c45 1039 0 0.254445f
c46 1034 0 0.954324f
c47 1031 0 0.254445f
c48 1027 0 0.903156f
c49 1025 0 0.0424558f
c50 1024 0 0.21097f
c51 1020 0 0.799359f
c52 1017 0 0.488025f
c53 1015 0 0.0460012f
c54 1014 0 0.135911f
c55 927 0 7.19201f
c56 922 0 0.0208826f
c57 915 0 0.0231661f
c58 908 0 0.0106455f
c59 901 0 0.0106455f
c60 894 0 0.0106455f
c61 887 0 0.0106455f
c62 880 0 0.0093986f
c63 875 0 7.85341f
c64 847 0 11.8129f
c65 845 0 19.4159f
c66 843 0 19.4159f
c67 841 0 19.4447f
c68 839 0 19.4159f
c69 837 0 19.2494f
c70 835 0 11.7222f
c71 809 0 0.161029f
c72 808 0 6.58599f
c73 805 0 0.110304f
c74 804 0 6.16763f
c75 21 0 0.152029f
c76 20 0 6.704f
c77 11 0 0.152029f
c78 10 0 6.75738f
r79 1521 1524 0.00394881 
r80 1518 1519 0.951776 
r81 1511 1512 0.279231 
r82 1509 1511 0.266538 
r83 1502 1503 0.273962 
r84 1500 1502 0.261509 
r85 1496 1497 1.79477 
r86 1495 1496 0.000373832 
r87 1489 1490 0.247407 
r88 1488 1489 0.210632 
r89 1487 1488 0.0988235 
r90 1482 1492 0.00304139 
r91 1490 1482 0.00174292 
r92 1480 1482 0.461538 
r93 1444 1489 0.545455 
r94 1440 1488 0.545455 
r95 1437 1440 1.5075 
r96 1436 1487 0.00174292 
r97 1483 1436 0.00305011 
r98 1434 1436 0.461538 
r99 1430 1518 0.2 
r100 1426 1526 0.0039415 
r101 1524 1426 0.467422 
r102 1424 1426 0.5 
r103 1422 1424 0.181 
r104 1419 1422 0.17 
r105 1419 1490 1.5 
r106 1416 1417 0.5433 
r107 1415 1416 0.2287 
r108 1414 1415 0.56298 
r109 1412 1414 0.0036 
r110 1411 1430 0.0539366 
r111 1411 1417 0.099 
r112 1519 1407 0.741308 
r113 1405 1407 0.181818 
r114 1405 1408 0.0136564 
r115 1512 1404 0.279231 
r116 1404 1402 0.279231 
r117 1402 1400 0.279231 
r118 1400 1398 0.266538 
r119 1396 1398 1.5 
r120 1396 1400 1.5 
r121 1396 1402 1.5 
r122 1396 1404 1.5 
r123 1396 1405 0.0314855 
r124 1503 1394 0.273962 
r125 1394 1392 0.273962 
r126 1392 1390 0.273962 
r127 1390 1388 0.261509 
r128 1386 1388 1.5 
r129 1386 1390 1.5 
r130 1386 1392 1.5 
r131 1386 1394 1.5 
r132 1497 1385 0.000747664 
r133 1383 1385 0.2 
r134 1383 1386 0.0334274 
r135 1380 1383 0.01361 
r136 1374 1511 1.5 
r137 1374 1509 1.5 
r138 1374 1512 1.5 
r139 1372 1374 0.0694058 
r140 1366 1502 1.5 
r141 1366 1500 1.5 
r142 1366 1372 0.0805639 
r143 1366 1503 1.5 
r144 1362 1495 0.2 
r145 1362 1366 0.0404834 
r146 1359 1362 0.0165962 
r147 1358 1430 0.0234268 
r148 1358 1374 0.0330312 
r149 1354 1524 0.5 
r150 1352 1354 0.181 
r151 1349 1352 0.17 
r152 1349 1487 1.5 
r153 1344 1346 0.0526456 
r154 1341 1344 0.0552365 
r155 1323 1325 6 
r156 1322 1323 0.565161 
r157 1311 1322 0.0564739 
r158 1307 1320 0.1836 
r159 1474 1307 0.0028 
r160 1305 1307 6 
r161 1287 1325 3.20516 
r162 1284 1287 0.0446983 
r163 1284 1285 0.125161 
r164 1280 1285 0.0664522 
r165 1280 1281 0.0466667 
r166 1248 1320 0.0784 
r167 1247 1474 0.2648 
r168 1246 1444 2.93125 
r169 1245 1474 0.2664 
r170 1244 1474 0.2664 
r171 1107 1109 1 
r172 1104 1313 3 
r173 1101 1104 0.2885 
r174 1101 1295 2 
r175 1098 1101 2.755 
r176 1293 1097 6 
r177 1097 1098 1.136 
r178 1091 1094 10.6116 
r179 1295 1081 0.000233918 
r180 1416 1081 2 
r181 1305 1079 0.000149533 
r182 1414 1079 6 
r183 1109 1077 0.000100503 
r184 1417 1077 1 
r185 1094 1075 2 
r186 1311 1075 0.0625641 
r187 1415 1075 2 
r188 1073 1320 1.5 
r189 1412 1073 1.5 
r190 1313 1071 0.000299625 
r191 1416 1071 3 
r192 1290 1069 3 
r193 1066 1293 3.25857 
r194 1290 1066 0.562857 
r195 1066 1091 6 
r196 1063 1107 0.217284 
r197 1062 1104 0.0845 
r198 1246 1060 0.02 
r199 1058 1069 3.47273 
r200 1055 1097 2.076 
r201 1054 1480 0.526 
r202 1054 1063 0.0447005 
r203 1053 1480 2.122 
r204 1053 1062 0.0446983 
r205 1048 1049 0.97375 
r206 1047 1061 0.0347798 
r207 1046 1048 0.044713 
r208 1046 1047 0.526452 
r209 1041 1061 0.00805565 
r210 1041 1042 0.97375 
r211 1040 1060 0.02 
r212 1039 1061 0.0347798 
r213 1039 1040 0.526452 
r214 1033 1060 0.02 
r215 1033 1034 0.97375 
r216 1032 1059 0.0347798 
r217 1031 1060 0.02 
r218 1031 1032 0.526452 
r219 1026 1059 0.00805565 
r220 1026 1027 0.97375 
r221 1024 1059 0.0347798 
r222 1024 1025 0.463226 
r223 1019 1025 0.044713 
r224 1019 1020 1.13125 
r225 1016 1017 0.21697 
r226 1015 1058 0.0446983 
r227 1014 1016 0.0446983 
r228 1014 1015 0.225455 
r229 1010 1434 2.122 
r230 1010 1055 0.0446983 
r231 927 875 0.159252 
r232 938 875 0.159252 
r233 875 945 0.159252 
r234 849 938 0.0829907 
r235 875 849 0.0291589 
r236 1519 849 0.1 
r237 880 847 0.793846 
r238 1509 847 1.5 
r239 887 845 0.55145 
r240 1511 845 1.5 
r241 894 843 0.55145 
r242 1512 843 1.5 
r243 901 841 0.55145 
r244 1404 841 1.5 
r245 908 839 0.55145 
r246 1402 839 1.5 
r247 915 837 0.55145 
r248 1400 837 1.5 
r249 922 835 0.793846 
r250 1398 835 1.5 
r251 833 880 0.842637 
r252 1500 833 1.5 
r253 831 887 0.585344 
r254 1502 831 1.5 
r255 829 894 0.585344 
r256 1503 829 1.5 
r257 827 901 0.585344 
r258 1394 827 1.5 
r259 825 908 0.585344 
r260 1392 825 1.5 
r261 823 915 0.585344 
r262 1390 823 1.5 
r263 821 922 0.842637 
r264 1388 821 1.5 
r265 875 819 0.0391734 
r266 1497 819 0.2 
r267 817 875 0.0397569 
r268 1496 817 0.2 
r269 815 945 0.73271 
r270 814 927 0.737944 
r271 813 875 0.73271 
r272 812 875 0.737944 
r273 809 813 0.0451326 
r274 809 875 2.504 
r275 808 815 0.0451326 
r276 808 875 2.44889 
r277 805 812 0.045921 
r278 805 875 2.687 
r279 804 814 0.045921 
r280 804 875 2.885 
r281 441 1396 0.0601494 
r282 1386 441 0.0634357 
r283 441 1344 0.00227273 
r284 440 1338 0.0620926 
r285 1334 440 0.0688218 
r286 1372 440 0.0025 
r287 1248 21 0.0447329 
r288 21 1474 1.51848 
r289 20 1247 0.0447329 
r290 20 1474 1.51162 
r291 1245 11 0.0447329 
r292 11 1474 1.51848 
r293 10 1244 0.0447329 
r294 10 1474 1.51162 
.ends

.subckt PM_PC3O01HV%VSSO 171 334 497 516 839 843 850 881 888 895 911 913 916
+ 922 931 937 943 949 955 961 970 980 988 991 1041 1044 1050
c0 1050 0 30.993f
c1 1041 0 32.6192f
c2 1030 0 7.92742f
c3 1028 0 6.972f
c4 1022 0 6.97586f
c5 1017 0 6.97726f
c6 1011 0 6.97747f
c7 1006 0 6.97641f
c8 988 0 0.00201294f
c9 983 0 8.95235f
c10 980 0 0.29997f
c11 961 0 0.562976f
c12 955 0 0.781378f
c13 949 0 0.781378f
c14 943 0 0.806568f
c15 937 0 0.717715f
c16 922 0 0.981876f
c17 916 0 0.935156f
c18 913 0 0.00103901f
c19 911 0 8.25608e-19
c20 909 0 8.96457f
c21 900 0 7.85285f
c22 894 0 1.27875f
c23 884 0 1.66703f
c24 881 0 58.5591f
c25 858 0 5.32604f
c26 846 0 1.18846f
c27 843 0 10.6705f
c28 836 0 0.187348f
c29 835 0 10.2215f
c30 828 0 2.55394f
c31 821 0 0.708327f
c32 820 0 3.24686f
c33 818 0 0.383003f
c34 817 0 0.713156f
c35 816 0 0.292604f
c36 815 0 3.25615f
c37 814 0 0.383249f
c38 784 0 0.123501f
c39 783 0 8.89412f
c40 753 0 0.269574f
c41 749 0 7.03694f
c42 747 0 0.146306f
c43 591 0 0.468399f
c44 589 0 0.0914211f
c45 516 0 0.449362f
c46 412 0 14.0391f
c47 362 0 14.0356f
c48 249 0 14.0403f
c49 199 0 14.0401f
c50 36 0 14.0405f
c51 14 0 0.146306f
r52 1048 1050 0.00282778 
r53 1047 1048 0.355444 
r54 1044 1047 0.00283333 
r55 1038 1039 0.129198 
r56 1037 1038 0.0253476 
r57 1036 1037 0.0252406 
r58 1035 1036 0.0251872 
r59 1034 1035 0.0223529 
r60 999 1000 0.0140639 
r61 996 997 0.0252406 
r62 995 996 0.0894118 
r63 987 988 0.0126606 
r64 1030 985 0.0113761 
r65 983 985 0.0638298 
r66 977 980 0.0335135 
r67 977 1039 2 
r68 964 1038 0.75 
r69 961 964 0.08875 
r70 958 1037 0.75 
r71 955 958 0.08125 
r72 952 1036 0.75 
r73 949 952 0.085 
r74 946 1035 0.75 
r75 943 946 0.095 
r76 940 1034 0.6 
r77 937 940 0.0766197 
r78 925 997 0.6 
r79 922 925 0.34 
r80 919 996 0.6 
r81 916 919 0.34 
r82 911 987 0.013211 
r83 983 911 0.000917431 
r84 909 911 0.000913242 
r85 909 999 0.0638298 
r86 900 999 0.0113242 
r87 898 900 0.0327869 
r88 897 898 0.029258 
r89 894 897 0.0131449 
r90 894 895 0.02 
r91 891 1048 0.357143 
r92 888 891 0.21 
r93 886 1041 0.00544385 
r94 1039 886 0.124439 
r95 884 886 1 
r96 884 888 0.445 
r97 879 881 0.00612761 
r98 879 1030 0.0327869 
r99 1024 877 0.00301483 
r100 877 1028 0.00301741 
r101 875 877 0.0266667 
r102 875 879 0.0287785 
r103 970 874 0.130435 
r104 874 1022 0.00301741 
r105 1019 874 0.00301741 
r106 872 874 0.0266667 
r107 872 875 0.0242129 
r108 1013 871 0.00301483 
r109 871 1017 0.00301741 
r110 869 871 0.0266667 
r111 869 872 0.0242129 
r112 868 869 0.000615582 
r113 931 867 0.130435 
r114 867 1011 0.00301741 
r115 1008 867 0.00301741 
r116 865 867 0.0266667 
r117 865 868 0.0235973 
r118 1002 864 0.00301483 
r119 864 1006 0.00301741 
r120 862 864 0.0266667 
r121 862 865 0.0242129 
r122 861 897 0.02 
r123 861 862 0.0277012 
r124 858 995 0.6 
r125 898 856 0.446124 
r126 856 858 2.21804 
r127 853 1047 0.357143 
r128 850 853 0.21 
r129 848 995 0.017861 
r130 991 848 0.00545455 
r131 846 848 1 
r132 846 850 0.445 
r133 835 997 0.0450267 
r134 835 836 0.00169958 
r135 834 1034 0.151551 
r136 834 836 0.00169958 
r137 827 836 0.0880724 
r138 827 828 4.0275 
r139 823 988 0.230275 
r140 821 983 0.210275 
r141 819 913 0.229041 
r142 819 820 0.0863581 
r143 817 909 0.209132 
r144 817 818 0.0863581 
r145 823 815 0.0861375 
r146 815 816 0.132033 
r147 821 814 0.0861375 
r148 784 911 0.128 
r149 783 816 0.0473573 
r150 783 911 0.126 
r151 753 784 0.0473573 
r152 820 753 0.132033 
r153 749 911 0.126 
r154 748 911 0.128 
r155 747 748 0.0473573 
r156 747 818 0.250407 
r157 828 591 6 
r158 589 591 0.66125 
r159 516 589 0.0454315 
r160 509 843 0.0419737 
r161 839 509 0.0413851 
r162 868 509 0.00128205 
r163 877 497 0.130435 
r164 970 412 0.00313778 
r165 1022 412 0.0652174 
r166 497 402 0.0031351 
r167 1024 402 0.0652174 
r168 362 497 0.00314046 
r169 1028 362 0.0652174 
r170 985 351 0.0141284 
r171 351 987 0.0652174 
r172 871 334 0.130435 
r173 931 249 0.00313778 
r174 1011 249 0.0652174 
r175 334 239 0.0031351 
r176 1013 239 0.0652174 
r177 199 334 0.00314046 
r178 1017 199 0.0652174 
r179 189 970 0.00313778 
r180 1019 189 0.0652174 
r181 864 171 0.130435 
r182 86 913 0.0126027 
r183 911 86 0.0131507 
r184 1000 86 0.0652174 
r185 171 76 0.0031351 
r186 1002 76 0.0652174 
r187 36 171 0.00314046 
r188 1006 36 0.0652174 
r189 26 931 0.00313778 
r190 1008 26 0.0652174 
r191 14 814 0.250407 
r192 14 749 0.0473573 
.ends

.subckt PM_PC3O01HV%ngate 50 55 86 88 95 100 138
c0 168 0 0.127185f
c1 165 0 0.800135f
c2 164 0 0.446403f
c3 162 0 0.0877319f
c4 161 0 8.16542f
c5 158 0 5.2763f
c6 154 0 0.119781f
c7 153 0 0.0505664f
c8 150 0 2.12911f
c9 138 0 1.40947f
c10 136 0 0.247261f
c11 128 0 16.4069f
c12 122 0 0.0811924f
c13 119 0 0.110666f
c14 115 0 0.0380767f
c15 109 0 1.5194f
c16 107 0 0.0846246f
c17 106 0 0.338311f
c18 104 0 0.416068f
c19 100 0 1.33664f
c20 95 0 1.47759f
c21 93 0 0.0572359f
c22 92 0 0.766022f
c23 88 0 1.43759f
c24 86 0 0.957449f
c25 62 0 0.968623f
c26 55 0 3.04886f
c27 54 0 0.167758f
c28 50 0 3.04886f
c29 49 0 0.169175f
r30 175 177 0.0556098 
r31 166 168 6 
r32 177 164 0.00439024 
r33 163 165 0.0725512 
r34 163 164 1.5 
r35 161 165 0.0735615 
r36 161 162 7.1184 
r37 158 168 6 
r38 156 162 0.0449356 
r39 156 158 5.88364 
r40 153 154 0.111111 
r41 149 153 0.0448998 
r42 149 150 1.29875 
r43 138 130 1.63125 
r44 154 130 6 
r45 166 128 3.45733 
r46 150 128 6 
r47 150 125 2.2825 
r48 125 136 6 
r49 124 138 1.3625 
r50 121 122 0.101935 
r51 117 136 0.295 
r52 116 119 0.0748718 
r53 116 117 0.02 
r54 110 122 0.02 
r55 109 121 0.02 
r56 108 119 0.02 
r57 108 109 2.71 
r58 106 121 0.0412903 
r59 106 107 0.424516 
r60 105 115 0.0263189 
r61 104 124 0.0459603 
r62 104 105 0.379535 
r63 99 107 0.044713 
r64 99 100 1.2375 
r65 94 115 0.0159026 
r66 94 95 1.3625 
r67 92 115 0.0263189 
r68 92 93 0.885581 
r69 87 93 0.0459603 
r70 87 88 1.4225 
r71 110 86 1.2375 
r72 60 62 5.05882 
r73 59 62 5.05882 
r74 54 60 3.88985 
r75 54 55 183.96 
r76 49 59 3.88985 
r77 49 50 183.96 
r78 62 27 0.00133393 
r79 175 27 3 
r80 62 9 0.0278113 
r81 177 9 3 
.ends

.subckt PM_PC3O01HV%I 18 51 53 94 121
c0 120 0 0.197619f
c1 117 0 0.198799f
c2 113 0 7.78417f
c3 110 0 15.6713f
c4 102 0 0.0927237f
c5 101 0 0.0448781f
c6 98 0 7.08807f
c7 91 0 0.118765f
c8 89 0 0.0726505f
c9 84 0 1.07051f
c10 79 0 3.08956f
c11 78 0 0.0404269f
c12 77 0 3.37885f
c13 63 0 0.0956041f
c14 56 0 0.296598f
c15 53 0 0.755852f
c16 51 0 0.517623f
c17 34 0 1.36483f