* File: pv0f.dist.sp.pex
* Created: Sun Jul  4 13:14:38 2010
* Program "Calibre xRC"
* Version "v2008.4_19.14"
* Nominal Temperature: 27C
* Circuit Temperature: 27C
* 
.subckt PM_PV0F%U37_U29_c2 135 140 227 232 252 311 316 321 325 329 333 337 343
+ 452
c0 483 0 0.675338f
c1 479 0 0.351524f
c2 452 0 0.274473f
c3 444 0 0.598957f
c4 437 0 0.565644f
c5 434 0 0.427745f
c6 431 0 0.555607f
c7 424 0 0.566569f
c8 421 0 0.427745f
c9 418 0 0.572446f
c10 404 0 12.2978f
c11 386 0 16.0837f
c12 385 0 0.201066f
c13 371 0 9.32128f
c14 370 0 0.20048f
c15 365 0 0.39841f
c16 363 0 0.256583f
c17 362 0 0.297339f
c18 361 0 1.13894f
c19 359 0 5.2576f
c20 358 0 0.0489987f
c21 351 0 0.104961f
c22 350 0 0.532789f
c23 349 0 0.105044f
c24 348 0 0.532789f
c25 347 0 0.105044f
c26 346 0 0.532789f
c27 345 0 0.105044f
c28 344 0 0.464453f
c29 343 0 2.81062f
c30 337 0 2.75911f
c31 333 0 2.75911f
c32 329 0 2.75911f
c33 325 0 2.75911f
c34 321 0 2.75911f
c35 316 0 2.75911f
c36 311 0 2.81011f
c37 252 0 2.5358f
c38 232 0 2.75911f
c39 231 0 0.105044f
c40 227 0 2.75911f
c41 226 0 0.105044f
c42 140 0 2.75911f
c43 139 0 0.105044f
c44 135 0 2.75911f
c45 134 0 0.105044f
r46 450 479 1.5 
r47 444 475 0.086875 
r48 442 444 3 
r49 442 445 0.382439 
r50 441 442 0.365854 
r51 437 471 0.0875 
r52 435 437 3 
r53 435 441 0.323415 
r54 434 435 0.424878 
r55 431 467 0.09 
r56 429 431 3 
r57 429 434 0.338049 
r58 428 429 0.410244 
r59 424 463 0.09 
r60 422 424 3 
r61 422 428 0.33122 
r62 421 422 0.417073 
r63 416 418 3 
r64 416 421 0.318049 
r65 415 416 0.430244 
r66 411 415 0.748293 
r67 445 404 0.06 
r68 393 475 3 
r69 391 483 0.0278466 
r70 389 391 1 
r71 388 479 0.000307692 
r72 386 388 1.5 
r73 386 389 1.11816 
r74 385 393 0.0228641 
r75 385 386 4.11429 
r76 383 471 3 
r77 379 467 3 
r78 379 383 0.657094 
r79 376 463 3 
r80 376 379 0.640684 
r81 418 374 0.09 
r82 372 374 3 
r83 372 376 0.636239 
r84 371 393 0.0219169 
r85 371 383 0.551111 
r86 452 367 0.000952381 
r87 365 367 2 
r88 370 365 0.0872362 
r89 362 370 0.0996985 
r90 362 363 0.126231 
r91 361 363 0.0454005 
r92 360 483 0.0200118 
r93 360 361 0.306129 
r94 359 450 0.113058 
r95 358 450 0.567493 
r96 351 404 2.14706 
r97 350 441 5.05882 
r98 349 441 5.05882 
r99 348 428 5.05882 
r100 347 428 5.05882 
r101 346 415 5.05882 
r102 345 415 5.05882 
r103 344 411 2.14706 
r104 339 351 4.2601 
r105 339 343 229.95 
r106 334 350 4.2601 
r107 334 337 229.95 
r108 330 349 4.2601 
r109 330 333 229.965 
r110 326 348 4.2601 
r111 326 329 229.965 
r112 322 347 4.2601 
r113 322 325 229.965 
r114 318 346 4.2601 
r115 318 321 229.965 
r116 313 345 4.2601 
r117 313 316 229.95 
r118 308 344 4.2601 
r119 308 311 229.95 
r120 359 257 0.0954001 
r121 257 252 1.9113 
r122 251 358 0.0954001 
r123 251 252 1.9113 
r124 238 434 5.05882 
r125 237 434 5.05882 
r126 231 238 4.2601 
r127 231 232 229.95 
r128 226 237 4.2601 
r129 226 227 229.95 
r130 146 421 5.05882 
r131 145 421 5.05882 
r132 139 146 4.2601 
r133 139 140 229.95 
r134 134 145 4.2601 
r135 134 135 229.95 
.ends

.subckt PM_PV0F%VSS 403 622 2074 2079 2084 2089 2096 2101 2106 2111 2114 2119
+ 2124 2129 2136 2141 2146 2175 2241 2251 2261 2265 2268 2273 2276 2282 2294 2321
+ 2326 2332 2376 2382 2401 2406 2412 2422 2431 2437 2443 2449 2455 2461 2466 2480
+ 2485 2496 2499 2513 2529 2560 2569 2593
c0 2610 0 23.7228f
c1 2591 0 159.215f
c2 2587 0 7.60722f
c3 2583 0 8.86574f
c4 2579 0 8.84134f
c5 2574 0 8.8433f
c6 2569 0 10.8092f
c7 2548 0 61.3922f
c8 2537 0 4.1345f
c9 2521 0 3.4915f
c10 2504 0 5.78783f
c11 2499 0 0.301376f
c12 2478 0 0.115481f
c13 2461 0 9.8673f
c14 2455 0 9.85738f
c15 2449 0 9.85997f
c16 2443 0 9.92804f
c17 2437 0 9.85738f
c18 2431 0 9.84491f
c19 2422 0 0.304983f
c20 2401 0 14.6102f
c21 2386 0 0.971375f
c22 2380 0 0.979677f
c23 2374 0 1.55439f
c24 2368 0 9.36233f
c25 2357 0 106.966f
c26 2354 0 0.299844f
c27 2348 0 9.82094f
c28 2336 0 14.5768f
c29 2330 0 0.449884f
c30 2324 0 0.72708f
c31 2321 0 46.3201f
c32 2306 0 8.84455f
c33 2303 0 8.58692f
c34 2300 0 7.59231f
c35 2282 0 11.594f
c36 2273 0 41.8163f
c37 2265 0 17.2707f
c38 2255 0 12.7094f
c39 2253 0 0.0558695f
c40 2251 0 1.40965f
c41 2247 0 0.251332f
c42 2246 0 0.157426f
c43 2245 0 0.331368f
c44 2237 0 0.018295f
c45 2235 0 0.658211f
c46 2232 0 0.833237f
c47 2231 0 0.340789f
c48 2230 0 0.162178f
c49 2220 0 0.118538f
c50 2219 0 1.27054f
c51 2218 0 0.157476f
c52 2217 0 128.075f
c53 2207 0 0.37809f
c54 2206 0 0.718873f
c55 2205 0 0.0730538f
c56 2204 0 5.4723f
c57 2202 0 2.83643f
c58 2192 0 2.66986f
c59 2183 0 5.13802f
c60 2181 0 0.375199f
c61 2180 0 0.720393f
c62 2179 0 0.214016f
c63 2178 0 5.14964f
c64 2175 0 0.312312f
c65 2151 0 6.28503f
c66 2148 0 0.320062f
c67 2146 0 0.131658f
c68 2143 0 0.313642f
c69 2141 0 0.122199f
c70 2138 0 0.306962f
c71 2136 0 0.120372f
c72 2133 0 0.307111f
c73 2131 0 0.308136f
c74 2129 0 0.118633f
c75 2126 0 0.308136f
c76 2124 0 0.118633f
c77 2121 0 0.308136f
c78 2119 0 0.118633f
c79 2116 0 0.309321f
c80 2114 0 0.304048f
c81 2111 0 0.304048f
c82 2108 0 0.309321f
c83 2106 0 0.308136f
c84 2103 0 0.308136f
c85 2101 0 0.308136f
c86 2098 0 0.308136f
c87 2096 0 0.308136f
c88 2093 0 0.308136f
c89 2091 0 0.307111f
c90 2089 0 0.310395f
c91 2086 0 0.307798f
c92 2084 0 0.311321f
c93 2081 0 0.316523f
c94 2079 0 0.313376f
c95 2076 0 0.314618f
c96 2074 0 0.309443f
c97 2042 0 0.099718f
c98 2041 0 7.66734f
c99 2010 0 0.198246f
c100 2007 0 0.231858f
c101 2005 0 0.305395f
c102 2004 0 0.228099f
c103 2002 0 4.27206f
c104 1636 0 0.0538339f
c105 1635 0 0.0538339f
c106 1634 0 0.0753882f
c107 1606 0 5.26933f
c108 1602 0 0.595941f
c109 1600 0 0.784388f
c110 1590 0 4.80514f
c111 1561 0 6.38191f
c112 1558 0 0.102637f
c113 1557 0 0.562762f
c114 1556 0 0.120169f
c115 1555 0 0.765352f
c116 1554 0 6.24045f
c117 1036 0 0.277216f
c118 1034 0 0.239329f
c119 1032 0 0.318731f
c120 1030 0 5.46937f
c121 1029 0 0.204562f
c122 1028 0 0.224967f
c123 1027 0 0.171311f
c124 1026 0 0.470772f
c125 1019 0 0.380953f
c126 837 0 0.0590527f
c127 836 0 0.617593f
c128 748 0 0.0865215f
c129 747 0 1.2397f
c130 746 0 0.305395f
c131 691 0 1.2544f
c132 689 0 1.14107f
c133 509 0 13.9323f
c134 439 0 13.9323f
c135 290 0 13.9323f
c136 220 0 13.9323f
c137 180 0 6.72743f
c138 134 0 13.9323f
c139 34 0 0.122347f
c140 26 0 0.122452f
r141 2610 2611 0.0214149 
r142 2609 2610 0.122945 
r143 2608 2609 0.120331 
r144 2605 2606 0.120331 
r145 2604 2605 0.120331 
r146 2603 2604 0.125303 
r147 2602 2603 0.022218 
r148 2600 2601 0.0171728 
r149 2599 2600 0.0171728 
r150 2598 2599 0.0171728 
r151 2597 2598 0.0171728 
r152 2596 2597 0.0171728 
r153 2592 2593 0.000593413 
r154 2591 2592 0.0670029 
r155 2588 2589 0.0119518 
r156 2587 2588 0.0965783 
r157 2586 2610 0.0223709 
r158 2586 2589 0.34641 
r159 2584 2585 0.013262 
r160 2583 2584 0.107166 
r161 2582 2609 0.0223709 
r162 2582 2585 0.384385 
r163 2579 2580 0.107166 
r164 2578 2608 0.0223709 
r165 2578 2580 0.397647 
r166 2575 2576 0.013262 
r167 2574 2575 0.107166 
r168 2573 2606 0.0223709 
r169 2573 2576 0.384385 
r170 2566 2567 0.156043 
r171 2565 2566 0.154545 
r172 2564 2565 0.169519 
r173 2557 2605 0.0223709 
r174 2557 2559 0.397647 
r175 2551 2552 0.013262 
r176 2549 2604 0.0223709 
r177 2549 2552 0.384385 
r178 2548 2583 0.294973 
r179 2548 2579 0.294973 
r180 2548 2574 0.294973 
r181 2548 2593 0.138219 
r182 2546 2547 0.0282353 
r183 2543 2544 0.0412363 
r184 2541 2542 0.0109735 
r185 2539 2603 0.0223709 
r186 2539 2542 0.318053 
r187 2536 2537 0.0551111 
r188 2535 2536 0.0497778 
r189 2534 2535 0.0497778 
r190 2533 2534 0.0497778 
r191 2531 2533 0.0311111 
r192 2531 2567 0.0413793 
r193 2529 2531 0.00284444 
r194 2528 2529 0.0158222 
r195 2527 2528 0.0497778 
r196 2526 2527 0.0497778 
r197 2525 2526 0.0497778 
r198 2523 2525 0.0551111 
r199 2520 2521 0.0551111 
r200 2519 2520 0.0497778 
r201 2518 2519 0.0497778 
r202 2517 2518 0.0497778 
r203 2515 2517 0.0131556 
r204 2515 2544 0.0413793 
r205 2513 2515 0.00266667 
r206 2512 2513 0.0339556 
r207 2511 2512 0.0497778 
r208 2510 2511 0.0497778 
r209 2509 2510 0.0497778 
r210 2507 2509 0.0551111 
r211 2494 2496 0.0012844 
r212 2494 2589 0.0606061 
r213 2588 2492 0.0652174 
r214 2492 2494 0.0113761 
r215 2485 2585 0.130435 
r216 2478 2480 0.30408 
r217 2478 2546 0.0416667 
r218 2466 2576 0.130435 
r219 2458 2461 0.00767442 
r220 2458 2601 0.0566038 
r221 2452 2455 0.00767442 
r222 2452 2600 0.0566038 
r223 2446 2449 0.00767442 
r224 2446 2599 0.0566038 
r225 2440 2443 0.00767442 
r226 2440 2598 0.0566038 
r227 2434 2437 0.00767442 
r228 2434 2597 0.0566038 
r229 2428 2431 0.00767442 
r230 2428 2596 0.0566038 
r231 2425 2565 0.04 
r232 2422 2425 0.29128 
r233 2412 2552 0.130435 
r234 2404 2406 0.00127854 
r235 2404 2542 0.0606061 
r236 2401 2492 0.013211 
r237 2388 2608 0.115997 
r238 2606 2388 0.00433397 
r239 2386 2388 0.0181818 
r240 2380 2382 0.4449 
r241 2374 2376 0.0129 
r242 2371 2372 1.4503 
r243 2368 2371 0.813861 
r244 2368 2547 0.3 
r245 2365 2596 0.019893 
r246 2363 2365 0.0288462 
r247 2361 2363 0.111877 
r248 2361 2566 0.0190476 
r249 2359 2546 0.119322 
r250 2544 2359 0.109352 
r251 2357 2359 0.0171429 
r252 2357 2361 0.0209518 
r253 2356 2386 0.00937584 
r254 2356 2357 0.0143305 
r255 2419 2354 2 
r256 2352 2354 2 
r257 2351 2352 1.37301 
r258 2348 2351 0.830622 
r259 2348 2543 0.3 
r260 2343 2344 0.00752787 
r261 2342 2343 0.021023 
r262 2340 2342 0.000537705 
r263 2340 2591 0.00162999 
r264 2338 2340 0.000537705 
r265 2336 2338 0.0285508 
r266 2330 2332 0.4449 
r267 2324 2326 0.0249 
r268 2320 2321 0.00123769 
r269 2317 2587 0.0487805 
r270 2317 2320 0.0134005 
r271 2315 2317 0.0275766 
r272 2315 2583 0.0292683 
r273 2312 2315 0.0292827 
r274 2312 2579 0.0292683 
r275 2308 2574 0.0292683 
r276 2308 2312 0.0292827 
r277 2307 2308 0.000527336 
r278 2306 2559 0.107166 
r279 2548 2306 0.294973 
r280 2304 2306 0.0292683 
r281 2304 2307 0.0287553 
r282 2303 2551 0.107166 
r283 2548 2303 0.294973 
r284 2301 2303 0.0292683 
r285 2301 2304 0.0292827 
r286 2300 2541 0.0886726 
r287 2298 2300 0.0487805 
r288 2298 2301 0.0275766 
r289 2297 2298 0.0108724 
r290 2294 2297 0.00383094 
r291 2280 2282 0.00199444 
r292 2279 2280 0.35605 
r293 2276 2279 0.00306111 
r294 2504 2258 0.113659 
r295 2256 2258 0.142857 
r296 2256 2259 0.00958209 
r297 2255 2547 0.092682 
r298 2254 2256 0.00731343 
r299 2254 2255 0.02 
r300 2251 2254 0.00492537 
r301 2251 2253 0.188803 
r302 2499 2250 0.00209524 
r303 2249 2250 2 
r304 2247 2587 0.172241 
r305 2548 2246 0.0635429 
r306 2245 2300 0.154867 
r307 2245 2246 0.044284 
r308 2241 2243 0.0056233 
r309 2398 2240 0.109268 
r310 2238 2240 0.142857 
r311 2238 2241 0.00994175 
r312 2236 2543 0.0857029 
r313 2235 2238 0.00201942 
r314 2235 2237 0.185341 
r315 2235 2236 0.0200078 
r316 2233 2611 0.0223709 
r317 2233 2253 0.0627848 
r318 2231 2249 0.0344193 
r319 2231 2232 0.344286 
r320 2247 2230 0.0421952 
r321 2548 2230 0.0635429 
r322 2419 2227 3.64488 
r323 2219 2232 0.0446983 
r324 2219 2220 0.766786 
r325 2218 2220 0.0446983 
r326 2217 2601 0.163575 
r327 2217 2218 0.0464286 
r328 2210 2602 0.0223709 
r329 2210 2237 0.0479227 
r330 2208 2496 0.230275 
r331 2206 2401 0.211193 
r332 2206 2207 0.0861375 
r333 2204 2227 0.546341 
r334 2204 2205 0.0420172 
r335 2202 2203 0.089172 
r336 2201 2202 0.089172 
r337 2200 2201 0.089172 
r338 2199 2478 0.0488 
r339 2198 2200 0.089172 
r340 2198 2199 0.0204618 
r341 2197 2198 0.089172 
r342 2196 2197 0.089172 
r343 2195 2196 0.089172 
r344 2194 2195 0.089172 
r345 2192 2193 0.089172 
r346 2191 2192 0.089172 
r347 2190 2191 0.089172 
r348 2189 2425 0.0616 
r349 2188 2190 0.089172 
r350 2188 2189 0.0204618 
r351 2187 2188 0.089172 
r352 2186 2187 0.089172 
r353 2185 2186 0.089172 
r354 2184 2185 0.089172 
r355 2182 2406 0.229041 
r356 2182 2183 0.0863581 
r357 2180 2401 0.210046 
r358 2180 2181 0.0863581 
r359 2208 2178 0.0861375 
r360 2178 2179 0.132033 
r361 2203 2175 0.35928 
r362 2150 2205 0.00265108 
r363 2150 2151 0.346916 
r364 2148 2536 0.02 
r365 2148 2529 0.30632 
r366 2202 2146 0.35928 
r367 2143 2535 0.02 
r368 2143 2529 0.30632 
r369 2140 2201 0.0204618 
r370 2140 2141 0.35288 
r371 2138 2534 0.02 
r372 2138 2529 0.30632 
r373 2135 2200 0.0204618 
r374 2135 2136 0.35288 
r375 2133 2533 0.02 
r376 2133 2529 0.30632 
r377 2131 2528 0.02 
r378 2131 2529 0.30632 
r379 2197 2129 0.35928 
r380 2126 2527 0.02 
r381 2126 2529 0.30632 
r382 2196 2124 0.35928 
r383 2121 2526 0.02 
r384 2121 2529 0.30632 
r385 2195 2119 0.35928 
r386 2116 2525 0.02 
r387 2116 2529 0.30632 
r388 2194 2114 0.35928 
r389 2193 2111 0.35928 
r390 2108 2520 0.02 
r391 2108 2513 0.30632 
r392 2192 2106 0.35928 
r393 2103 2519 0.02 
r394 2103 2513 0.30632 
r395 2191 2101 0.35928 
r396 2098 2518 0.02 
r397 2098 2513 0.30632 
r398 2190 2096 0.35928 
r399 2093 2517 0.02 
r400 2093 2513 0.30632 
r401 2091 2512 0.02 
r402 2091 2513 0.30632 
r403 2088 2187 0.0204618 
r404 2088 2089 0.35288 
r405 2086 2511 0.02 
r406 2086 2513 0.30632 
r407 2083 2186 0.0204618 
r408 2083 2084 0.35288 
r409 2081 2510 0.02 
r410 2081 2513 0.30632 
r411 2185 2079 0.35928 
r412 2076 2509 0.02 
r413 2076 2513 0.30632 
r414 2184 2074 0.35928 
r415 2042 2401 0.128 
r416 2041 2179 0.0473573 
r417 2041 2401 0.126 
r418 2010 2042 0.0473573 
r419 2183 2010 0.132033 
r420 2007 2537 0.02 
r421 2006 2205 0.0420172 
r422 2005 2523 0.02 
r423 2004 2507 0.02 
r424 2002 2401 0.126 
r425 2001 2258 0.349756 
r426 2000 2504 0.02 
r427 1999 2173 0.349159 
r428 1998 2419 0.522927 
r429 1997 2398 0.02 
r430 1996 2401 0.128 
r431 1994 2240 0.354146 
r432 1999 1636 0.00319614 
r433 1998 1634 0.0420172 
r434 1605 1633 0.347333 
r435 1604 1606 0.345333 
r436 1603 1636 0.0412274 
r437 1602 1605 0.0465329 
r438 1602 1603 0.578095 
r439 1600 1604 0.0467869 
r440 1600 2006 0.592195 
r441 1591 1635 0.0412274 
r442 1590 1636 0.0412274 
r443 1560 1635 0.00319614 
r444 1560 1588 0.346916 
r445 1559 1634 0.00265108 
r446 1559 1561 0.344673 
r447 1557 1635 0.0412274 
r448 1557 1558 0.578095 
r449 1555 1634 0.0420172 
r450 1555 1556 0.592195 
r451 1554 1558 0.0465329 
r452 1553 1556 0.0467869 
r453 1553 1554 3.32467 
r454 1039 1042 1.676 
r455 1036 2227 2 
r456 2372 1036 2 
r457 1042 1034 1.5 
r458 2371 1034 1.5 
r459 1039 1032 1 
r460 2351 1032 1 
r461 1030 1042 0.459111 
r462 2001 1029 0.0420897 
r463 1028 1039 0.462222 
r464 1994 1027 0.0420897 
r465 1026 1030 0.0474127 
r466 1029 1026 0.120863 
r467 1561 1022 0.161495 
r468 1022 1588 0.161495 
r469 2151 1022 0.159252 
r470 1022 2173 0.159252 
r471 1606 1022 0.106 
r472 1022 1633 0.106 
r473 1590 1022 4.34857 
r474 1591 1022 0.253333 
r475 2000 1022 2.94 
r476 1997 1022 2.904 
r477 1019 1028 0.0474127 
r478 1027 1019 0.120863 
r479 864 2007 0.5605 
r480 836 864 0.0446983 
r481 836 837 1.21 
r482 834 837 0.0446983 
r483 834 2005 0.5605 
r484 775 2004 0.5605 
r485 747 775 0.0446983 
r486 747 748 1.21 
r487 746 2521 0.02 
r488 745 748 0.0446983 
r489 745 746 0.5605 
r490 2382 704 0.2101 
r491 704 2280 0.357143 
r492 703 2569 0.00383957 
r493 2567 703 0.190588 
r494 2380 703 1 
r495 701 2273 0.000506675 
r496 2374 701 0.131579 
r497 2376 698 0.1891 
r498 698 2259 0.428571 
r499 695 2265 0.0418839 
r500 2261 695 0.0414748 
r501 2307 695 0.00132837 
r502 691 2564 0.666667 
r503 689 691 2.0883 
r504 2332 687 0.1981 
r505 687 2279 0.357143 
r506 686 2564 0.0147487 
r507 2560 686 0.00589305 
r508 2330 686 1 
r509 684 701 0.0834503 
r510 2268 684 0.000704656 
r511 2324 684 0.131579 
r512 2326 681 0.1891 
r513 681 2243 0.428571 
r514 680 689 0.0661809 
r515 679 2297 0.02 
r516 679 680 0.134899 
r517 671 674 0.0022831 
r518 2344 671 0.0375475 
r519 671 2592 0.00547945 
r520 2342 638 0.00210084 
r521 634 638 0.000537705 
r522 2338 634 0.00210084 
r523 2580 622 0.130435 
r524 2466 509 0.00313778 
r525 2575 509 0.0652174 
r526 622 495 0.0031351 
r527 2580 495 0.0652174 
r528 439 622 0.00314046 
r529 2580 439 0.0652174 
r530 425 2485 0.00313778 
r531 2584 425 0.0652174 
r532 2559 403 0.130435 
r533 2412 290 0.00313778 
r534 2551 290 0.0652174 
r535 403 276 0.0031351 
r536 2559 276 0.0652174 
r537 220 403 0.00314046 
r538 2559 220 0.0652174 
r539 206 2466 0.00313778 
r540 2575 206 0.0652174 
r541 638 192 0.0105115 
r542 2343 192 0.00712251 
r543 184 674 0.0187738 
r544 192 184 0.00376393 
r545 2344 184 0.00712251 
r546 180 634 0.0142754 
r547 2336 180 0.00356125 
r548 2485 134 0.00313778 
r549 2584 134 0.0652174 
r550 64 2404 0.0113242 
r551 2401 64 0.0131507 
r552 2541 64 0.0652174 
r553 50 2412 0.00313778 
r554 2551 50 0.0652174 
r555 34 2207 0.250407 
r556 34 2002 0.0473573 
r557 26 2181 0.250407 
r558 26 1996 0.0473573 
.ends

.subckt PM_PV0F%noxref_3 8 15
c0 16 0 0.313581f
c1 14 0 0.78802f
c2 13 0 0.361799f
r3 14 16 0.020045 
r4 13 15 0.0300645 
r5 13 14 0.232258 
r6 16 8 0.0675676 
.ends

.subckt PM_PV0F%VDDO 94 170 246 322 446 522 601 634 1445 1454 1487 1492 1495
+ 1499 1502 1507 1511 1515 1545 1597 1612 1615 1634 1652 1661 1670 1679 1688 1697
+ 1706
c0 1819 0 10.8094f
c1 1815 0 4.47006f
c2 1806 0 7.78148f
c3 1802 0 10.855f
c4 1798 0 10.8579f
c5 1794 0 10.8565f
c6 1790 0 10.8203f
c7 1781 0 8.04044f
c8 1776 0 4.31973f
c9 1772 0 10.745f
c10 1770 0 0.245608f
c11 1764 0 1.20436f
c12 1759 0 1.21364f
c13 1754 0 1.20451f
c14 1752 0 0.455021f
c15 1749 0 1.17497f
c16 1747 0 0.399661f
c17 1745 0 1.09706f
c18 1711 0 6.72039f
c19 1708 0 9.32276f
c20 1699 0 15.6198f
c21 1690 0 15.6198f
c22 1681 0 15.6254f
c23 1672 0 15.6198f
c24 1663 0 15.6198f
c25 1654 0 9.58269f
c26 1634 0 0.00383744f
c27 1622 0 6.19205f
c28 1619 0 0.462937f
c29 1594 0 53.972f
c30 1573 0 37.8022f
c31 1571 0 11.2412f
c32 1550 0 32.9705f
c33 1549 0 48.8733f
c34 1548 0 7.75884f
c35 1545 0 57.2952f
c36 1507 0 3.0109f
c37 1499 0 2.39497f
c38 1492 0 18.8284f
c39 1475 0 0.454731f
c40 1469 0 0.494097f
c41 1454 0 41.5849f
c42 1452 0 1.23277f
c43 1435 0 0.456477f
c44 1431 0 0.434775f
c45 1425 0 0.437791f
c46 1378 0 2.52545f
c47 1377 0 9.71385f
c48 1131 0 0.11068f
c49 1130 0 3.58651f
c50 1127 0 0.0815817f
c51 1126 0 5.07421f
c52 634 0 18.995f
c53 609 0 0.521007f
c54 597 0 0.576567f
c55 586 0 0.348014f
c56 584 0 0.474924f
c57 578 0 0.493537f
c58 522 0 3.29976f
c59 466 0 6.98793f
c60 446 0 3.29976f
c61 390 0 6.98793f
c62 322 0 3.29976f
c63 266 0 6.97786f
c64 246 0 3.29976f
c65 190 0 6.98793f
c66 170 0 3.2991f
c67 114 0 6.96912f
c68 94 0 3.29912f
c69 38 0 6.94939f
c70 21 0 0.152029f
c71 20 0 6.87976f
c72 11 0 0.152029f
c73 10 0 6.89863f
r74 1808 1809 0.279231 
r75 1806 1808 0.255385 
r76 1783 1784 0.273962 
r77 1781 1783 0.250566 
r78 1776 1778 1.11252 
r79 1765 1766 0.00136986 
r80 1760 1761 0.000273973 
r81 1744 1754 0.0474528 
r82 1744 1749 0.0496446 
r83 1744 1765 0.0126027 
r84 1744 1764 0.0493706 
r85 1744 1760 0.0156164 
r86 1744 1759 0.045261 
r87 1744 1745 0.0452225 
r88 1730 1732 0.0224299 
r89 1717 1815 0.206897 
r90 1715 1717 0.0284112 
r91 1706 1708 0.792967 
r92 1703 1706 0.843516 
r93 1697 1699 0.55084 
r94 1694 1697 0.585954 
r95 1688 1690 0.55084 
r96 1685 1688 0.585954 
r97 1679 1681 0.550076 
r98 1676 1679 0.585954 
r99 1672 1809 1.5 
r100 1670 1672 0.55084 
r101 1667 1670 0.585954 
r102 1667 1784 1.5 
r103 1663 1808 1.5 
r104 1661 1663 0.55084 
r105 1658 1661 0.585954 
r106 1658 1783 1.5 
r107 1654 1806 1.5 
r108 1652 1654 0.792967 
r109 1649 1652 0.843516 
r110 1649 1781 1.5 
r111 1636 1778 0.136364 
r112 1634 1647 0.159252 
r113 1711 1634 0.159252 
r114 1717 1634 0.130841 
r115 1732 1634 0.136822 
r116 1634 1739 0.159252 
r117 1634 1730 0.11215 
r118 1634 1715 0.11215 
r119 1634 1636 0.0361055 
r120 1633 1634 0.11215 
r121 1632 1633 0.11215 
r122 1634 1632 0.159252 
r123 1622 1634 0.159252 
r124 1619 1770 3 
r125 1615 1619 0.170337 
r126 1610 1611 0.00359201 
r127 1772 1609 0.207556 
r128 1607 1609 0.133333 
r129 1607 1610 0.0754859 
r130 1606 1607 0.00257338 
r131 1605 1770 0.004 
r132 1597 1599 0.1811 
r133 1594 1612 0.0391073 
r134 1593 1594 0.926976 
r135 1590 1815 0.206897 
r136 1584 1808 1.5 
r137 1584 1806 1.5 
r138 1584 1590 0.0140987 
r139 1584 1809 1.5 
r140 1582 1584 0.0759315 
r141 1576 1783 1.5 
r142 1576 1781 1.5 
r143 1576 1582 0.0740383 
r144 1576 1784 1.5 
r145 1574 1576 0.0136556 
r146 1573 1612 0.0222054 
r147 1573 1590 0.00831823 
r148 1570 1571 0.596508 
r149 1569 1570 0.595238 
r150 1568 1569 0.60381 
r151 1567 1611 0.0200241 
r152 1567 1568 0.498413 
r153 1819 1566 0.207556 
r154 1564 1566 0.133333 
r155 1802 1563 0.207556 
r156 1561 1563 0.133333 
r157 1561 1564 0.109468 
r158 1798 1560 0.207556 
r159 1558 1560 0.133333 
r160 1558 1561 0.108317 
r161 1794 1557 0.207556 
r162 1555 1557 0.133333 
r163 1555 1558 0.109468 
r164 1790 1554 0.207556 
r165 1552 1554 0.133333 
r166 1552 1555 0.107223 
r167 1551 1606 0.0200241 
r168 1551 1552 0.0872518 
r169 1550 1593 0.0447455 
r170 1550 1564 0.00989928 
r171 1548 1611 0.00674699 
r172 1548 1549 0.763588 
r173 1732 1544 0.315789 
r174 1815 1544 1.62243 
r175 1542 1544 0.315789 
r176 1542 1545 0.0335568 
r177 1690 1541 1.5 
r178 1699 1539 1.5 
r179 1541 1539 0.279231 
r180 1708 1537 1.5 
r181 1539 1537 0.279231 
r182 1535 1537 1.5 
r183 1535 1539 1.5 
r184 1535 1541 1.5 
r185 1535 1542 0.0116183 
r186 1681 1534 1.5 
r187 1534 1541 0.231538 
r188 1809 1534 0.326923 
r189 1532 1534 1.5 
r190 1532 1535 8.29875e-05 
r191 1676 1530 1.5 
r192 1784 1530 0.273962 
r193 1685 1528 1.5 
r194 1530 1528 0.273962 
r195 1694 1526 1.5 
r196 1528 1526 0.273962 
r197 1703 1524 1.5 
r198 1526 1524 0.273962 
r199 1522 1524 1.5 
r200 1522 1526 1.5 
r201 1522 1528 1.5 
r202 1522 1530 1.5 
r203 1778 1521 0.417196 
r204 1519 1521 0.230769 
r205 1519 1522 0.0134772 
r206 1518 1519 0.0225062 
r207 1515 1518 0.0110207 
r208 1511 1513 0.1811 
r209 1505 1507 0.0542058 
r210 1502 1505 0.0536763 
r211 1599 1491 0.5 
r212 1491 1492 0.00284461 
r213 1483 1766 3 
r214 1761 1475 3 
r215 1744 1473 0.0186301 
r216 1467 1752 0.0326583 
r217 1465 1467 3 
r218 1453 1454 0.00347712 
r219 1740 1452 0.221839 
r220 1450 1452 0.5 
r221 1450 1453 0.0735512 
r222 1449 1450 0.463529 
r223 1448 1449 0.0210806 
r224 1445 1448 0.00480174 
r225 1436 1744 0.164 
r226 1766 1435 0.0348501 
r227 1435 1436 0.154 
r228 1764 1434 0.1532 
r229 1744 1434 0.16408 
r230 1432 1744 0.16392 
r231 1761 1431 0.0301925 
r232 1431 1432 0.158 
r233 1759 1429 0.1592 
r234 1744 1429 0.164 
r235 1426 1744 0.164 
r236 1425 1426 0.1564 
r237 1754 1423 0.156 
r238 1744 1423 0.16408 
r239 1421 1744 0.16392 
r240 1752 1421 0.1544 
r241 1749 1418 0.1528 
r242 1744 1418 0.164 
r243 1747 1415 0.156 
r244 1744 1415 0.164 
r245 1745 1412 0.1592 
r246 1744 1412 0.164 
r247 1378 1744 0.2648 
r248 1377 1744 0.2648 
r249 1372 1744 0.2664 
r250 1371 1744 0.2664 
r251 1149 1739 0.19514 
r252 1148 1711 0.19514 
r253 1131 1634 2.11181 
r254 1130 1149 0.0456322 
r255 1130 1634 2.10217 
r256 1127 1634 2.181 
r257 1126 1148 0.045921 
r258 1126 1634 2.191 
r259 1120 1647 0.19514 
r260 1120 1131 0.0456322 
r261 1119 1622 0.19514 
r262 1119 1127 0.045921 
r263 634 1740 3.53933 
r264 613 1449 0.02 
r265 613 614 0.758885 
r266 609 1597 0.1699 
r267 609 1453 1.5 
r268 607 1532 0.0631535 
r269 1522 607 0.0603485 
r270 607 1505 0.00150602 
r271 614 606 0.510769 
r272 1518 606 0.2 
r273 604 1499 0.0653756 
r274 1495 604 0.0655388 
r275 1582 604 0.00181159 
r276 601 1776 0.206897 
r277 601 1605 3 
r278 601 1549 0.0351851 
r279 601 1574 0.0226623 
r280 601 614 0.2 
r281 600 1491 0.468512 
r282 1487 600 0.00395612 
r283 1513 600 0.5 
r284 597 1511 0.1699 
r285 597 1448 1.5 
r286 591 1425 0.0280008 
r287 1473 591 0.000547945 
r288 591 1469 3 
r289 589 1467 0.00109589 
r290 1744 589 0.0147945 
r291 1459 587 3 
r292 587 1747 0.0284089 
r293 1744 587 0.0189831 
r294 587 586 3 
r295 586 1459 0.0311429 
r296 1610 586 1.5 
r297 589 584 3 
r298 584 1465 0.0290667 
r299 1568 584 1.5 
r300 582 1473 3 
r301 1469 582 0.0303833 
r302 1569 582 1.5 
r303 580 1760 3 
r304 1475 580 0.0322909 
r305 1570 580 1.5 
r306 1765 578 3 
r307 578 1483 0.0296 
r308 1571 578 1.5 
r309 522 480 0.00249413 
r310 1798 480 0.0425532 
r311 466 522 0.00249413 
r312 1798 466 0.0425532 
r313 446 404 0.00249413 
r314 1802 404 0.0425532 
r315 390 446 0.00249413 
r316 1802 390 0.0425532 
r317 322 280 0.00249413 
r318 1790 280 0.0425532 
r319 266 322 0.00249413 
r320 1790 266 0.0425532 
r321 246 204 0.00249413 
r322 1794 204 0.0425532 
r323 190 246 0.00249413 
r324 1794 190 0.0425532 
r325 170 128 0.00249413 
r326 1819 128 0.0425532 
r327 114 170 0.00249413 
r328 1819 114 0.0425532 
r329 94 52 0.00249413 
r330 1772 52 0.0425532 
r331 38 94 0.00249413 
r332 1772 38 0.0425532 
r333 1378 21 0.0447329 
r334 21 1744 1.51848 
r335 20 1377 0.0447329 
r336 20 1744 1.51162 
r337 1372 11 0.0447329 
r338 11 1744 1.51848 
r339 10 1371 0.0447329 
r340 10 1744 1.51162 
.ends

.subckt PM_PV0F%U34_U22$11_gate 413 415 417 419 421 423 425 427 429 431 433 436
+ 490
c0 528 0 8.14487f
c1 523 0 0.350517f
c2 522 0 0.348008f
c3 521 0 0.348008f
c4 520 0 0.348008f
c5 519 0 0.348008f
c6 518 0 0.326664f
c7 517 0 0.348397f
c8 516 0 0.348008f
c9 515 0 0.348008f
c10 514 0 0.348008f
c11 513 0 0.348008f
c12 511 0 7.21561f
c13 507 0 0.348537f
c14 506 0 0.35479f
c15 505 0 0.35479f
c16 504 0 0.35479f
c17 503 0 0.35479f
c18 502 0 0.335276f
c19 501 0 0.35518f
c20 500 0 0.35479f
c21 499 0 0.35479f
c22 498 0 0.35479f
c23 495 0 8.22016f
c24 483 0 0.377422f
c25 481 0 1.46201f
c26 473 0 1.56808f
c27 470 0 2.13723f
c28 467 0 0.239691f
c29 464 0 0.523811f
c30 412 0 4.08967f
c31 400 0 0.139885f
c32 308 0 0.351289f
c33 305 0 0.35479f
c34 277 0 3.84493f
c35 275 0 0.107369f
c36 241 0 3.84493f
c37 239 0 0.107369f
c38 223 0 3.84493f
c39 221 0 0.107369f
c40 187 0 3.84493f
c41 185 0 0.107369f
c42 169 0 3.847f
c43 167 0 0.107877f
c44 133 0 3.83924f
c45 131 0 0.107369f
c46 115 0 3.8443f
c47 113 0 0.107369f
c48 79 0 3.84493f
c49 77 0 0.107369f
c50 61 0 3.84493f
c51 59 0 0.107369f
c52 25 0 3.84493f
c53 23 0 0.107369f
c54 7 0 4.07675f
c55 5 0 0.12867f
r56 522 523 0.343512 
r57 521 522 0.36478 
r58 520 521 0.343512 
r59 519 520 0.36478 
r60 518 519 0.343512 
r61 517 518 0.36478 
r62 516 517 0.343512 
r63 515 516 0.36478 
r64 514 515 0.343512 
r65 513 514 0.36478 
r66 511 513 0.000585366 
r67 507 508 0.190244 
r68 506 507 0.277073 
r69 505 506 0.43122 
r70 504 505 0.277073 
r71 503 504 0.43122 
r72 502 503 0.277073 
r73 501 502 0.43122 
r74 500 501 0.277073 
r75 499 500 0.43122 
r76 498 499 0.277073 
r77 497 498 0.374146 
r78 495 497 0.0570732 
r79 486 511 2 
r80 483 528 0.000883978 
r81 481 483 3 
r82 481 486 0.849091 
r83 478 497 2 
r84 473 475 3 
r85 473 478 0.844242 
r86 470 508 3 
r87 490 467 0.00494845 
r88 465 467 3 
r89 465 470 0.429926 
r90 464 475 0.04449 
r91 528 464 4.51778 
r92 412 436 304.95 
r93 400 436 304.95 
r94 523 308 0.36478 
r95 508 305 0.240976 
r96 296 308 2.44118 
r97 412 296 4.2601 
r98 294 305 2.44118 
r99 400 294 4.2601 
r100 278 523 2.44118 
r101 277 433 304.95 
r102 277 278 4.2601 
r103 276 507 2.44118 
r104 275 433 304.95 
r105 275 276 4.2601 
r106 242 522 2.44118 
r107 241 431 304.95 
r108 241 242 4.2601 
r109 240 506 2.44118 
r110 239 431 304.95 
r111 239 240 4.2601 
r112 224 521 2.44118 
r113 223 429 304.95 
r114 223 224 4.2601 
r115 222 505 2.44118 
r116 221 429 304.95 
r117 221 222 4.2601 
r118 188 520 2.44118 
r119 187 427 304.95 
r120 187 188 4.2601 
r121 186 504 2.44118 
r122 185 427 304.95 
r123 185 186 4.2601 
r124 170 519 2.44118 
r125 169 425 304.95 
r126 169 170 4.2601 
r127 168 503 2.44118 
r128 167 425 304.95 
r129 167 168 4.2601 
r130 134 518 2.44118 
r131 133 423 304.95 
r132 133 134 4.2601 
r133 132 502 2.44118 
r134 131 423 304.95 
r135 131 132 4.2601 
r136 116 517 2.44118 
r137 115 421 304.95 
r138 115 116 4.2601 
r139 114 501 2.44118 
r140 113 421 304.95 
r141 113 114 4.2601 
r142 80 516 2.44118 
r143 79 419 304.95 
r144 79 80 4.2601 
r145 78 500 2.44118 
r146 77 419 304.95 
r147 77 78 4.2601 
r148 62 515 2.44118 
r149 61 417 304.95 
r150 61 62 4.2601 
r151 60 499 2.44118 
r152 59 417 304.95 
r153 59 60 4.2601 
r154 26 514 2.44118 
r155 25 415 304.95 
r156 25 26 4.2601 
r157 24 498 2.44118 
r158 23 415 304.95 
r159 23 24 4.2601 
r160 8 513 2.44118 
r161 7 413 304.95 
r162 7 8 4.2601 
r163 6 495 2.44118 
r164 5 413 304.95 
r165 5 6 4.2601 
.ends

.subckt PM_PV0F%noxref_6 8 15
c0 19 0 0.258642f
c1 14 0 0.576401f
c2 13 0 0.281327f
r3 14 19 0.02 
r4 13 15 0.0300645 
r5 13 14 0.232258 
r6 8 19 0.0116854 
.ends

.subckt PM_PV0F%VDD 17 22 25 31 33 39
c0 39 0 2.71903f
c1 33 0 1.71514f
c2 31 0 102.094f
c3 22 0 51.2234f
r4 29 31 0.000500966 
r5 28 29 0.0824842 
r6 25 28 0.000722473 
r7 7 43 0.141 
r8 39 7 0.0621 
r9 7 29 0.0925926 
r10 6 22 0.00305282 
r11 43 6 0.6 
r12 3 37 0.105 
r13 33 3 0.0611 
r14 3 28 0.0925926 
r15 2 6 0.466441 
r16 17 2 0.00408743 
r17 37 2 0.6 
.ends

