* File: pc3x11.dist.sp.pex
* Created: Sun Jul  4 12:53:42 2010
* Program "Calibre xRC"
* Version "v2008.4_19.14"
* Nominal Temperature: 27C
* Circuit Temperature: 27C
* 
.subckt PM_PC3X11%Z 14 23 32 37 103 133
c0 130 0 0.136174f
c1 128 0 8.82805f
c2 122 0 15.8017f
c3 108 0 0.175289f
c4 106 0 7.11961f
c5 100 0 0.0990467f
c6 97 0 0.0427697f
c7 96 0 3.61003f
c8 95 0 5.03441f
c9 93 0 0.10743f
c10 80 0 4.49862f
c11 74 0 0.621899f
c12 67 0 0.971875f
c13 65 0 2.73776f
c14 62 0 0.189421f
c15 60 0 0.0382854f
c16 56 0 8.87762f
c17 47 0 0.819177f
c18 46 0 0.0360137f
c19 43 0 0.0732458f
c20 37 0 2.35443f
c21 36 0 0.0651423f
c22 32 0 1.42735f
c23 31 0 0.0313385f
c24 30 0 0.182262f
c25 28 0 0.0963291f
c26 23 0 0.970312f
c27 21 0 0.0685632f
c28 20 0 0.258227f
c29 19 0 0.0420185f
c30 18 0 0.295244f
c31 14 0 1.39199f
r32 130 133 0.0207123 
r33 130 131 0.0464795 
r34 120 122 4.89333 
r35 118 120 8.93333 
r36 111 128 6 
r37 122 108 6 
r38 106 108 6 
r39 106 111 8.32125 
r40 100 103 0.0207123 
r41 100 130 6 
r42 98 128 12.5875 
r43 96 98 0.0446983 
r44 96 97 5.8425 
r45 114 95 7.53571 
r46 93 95 6 
r47 131 93 0.245 
r48 91 97 0.0446983 
r49 91 93 0.0725 
r50 72 74 6 
r51 70 72 1.7075 
r52 70 120 6 
r53 65 67 6 
r54 65 70 2.085 
r55 62 114 6 
r56 60 62 0.47 
r57 80 58 8.00857 
r58 56 58 6 
r59 55 60 0.0446983 
r60 55 56 14.6143 
r61 52 80 6 
r62 47 118 6 
r63 47 52 1.40571 
r64 45 74 0.815238 
r65 42 67 1.27 
r66 41 43 0.1125 
r67 41 42 0.02 
r68 36 37 2.2925 
r69 31 32 1.7775 
r70 30 36 0.0446983 
r71 29 46 0.0338756 
r72 29 30 0.2475 
r73 28 46 0.0338756 
r74 27 31 0.0446983 
r75 27 28 0.1825 
r76 22 43 0.02 
r77 22 23 1.2425 
r78 21 45 0.0447019 
r79 20 46 0.00880368 
r80 20 21 0.39375 
r81 18 41 0.04 
r82 18 19 0.3975 
r83 13 19 0.0446983 
r84 13 14 1.2425 
.ends

.subckt PM_PC3X11%EN 74 76 78 81 106 141
c0 140 0 0.0461595f
c1 137 0 10.2752f
c2 123 0 11.624f
c3 112 0 16.1795f
c4 110 0 0.210006f
c5 108 0 7.56589f
c6 103 0 0.137938f
c7 101 0 0.104545f
c8 99 0 0.0604908f
c9 98 0 3.26682f
c10 89 0 1.26658f
c11 81 0 0.698572f
c12 78 0 0.871649f
c13 76 0 0.0812915f
c14 74 0 0.0738467f
c15 51 0 0.104138f
c16 47 0 1.43369f
c17 38 0 3.27762f
c18 35 0 0.324856f
c19 29 0 0.12247f
c20 28 0 0.912461f
c21 3 0 0.839707f
c22 1 0 0.758719f
r23 121 123 7.34194 
r24 119 121 0.981936 
r25 116 137 6 
r26 112 116 7.53 
r27 123 110 6 
r28 108 110 6 
r29 108 112 2.325 
r30 103 141 0.0207123 
r31 103 140 0.0464795 
r32 101 103 6 
r33 101 106 0.0207123 
r34 100 137 13.2697 
r35 98 100 0.044713 
r36 98 99 5.775 
r37 96 99 0.0446983 
r38 96 140 0.0875 
r39 68 78 85 
r40 89 68 2.42502 
r41 81 53 0.672 
r42 51 53 6 
r43 49 51 0.0208 
r44 45 47 6 
r45 43 45 3.22125 
r46 43 121 6 
r47 89 40 0.9225 
r48 38 40 6 
r49 38 43 0.565 
r50 35 119 6 
r51 33 49 0.02 
r52 33 35 0.505 
r53 32 47 1.63683 
r54 28 32 0.0447019 
r55 28 29 0.975 
r56 4 29 6.91667 
r57 3 76 99.5833 
r58 3 4 3.35237 
r59 2 29 6.41667 
r60 1 74 99.5833 
r61 1 2 3.35237 
.ends

.subckt PM_PC3X11%U22_PADR 15 40 93 95 248 278 322
c0 351 0 16.9863f
c1 341 0 15.3316f
c2 328 0 9.25359f
c3 322 0 0.00286014f
c4 311 0 4.13621f
c5 309 0 0.224749f
c6 308 0 0.443885f
c7 305 0 7.42558f
c8 303 0 5.70457f
c9 298 0 5.94688f
c10 295 0 0.185462f
c11 294 0 7.55178f
c12 293 0 16.3796f
c13 290 0 16.7013f
c14 286 0 5.78289f
c15 284 0 2.83317f
c16 281 0 10.0857f
c17 280 0 0.403961f
c18 279 0 5.82076f
c19 278 0 0.0020484f
c20 248 0 1.70226f
c21 214 0 8.67776f
c22 212 0 0.197863f
c23 210 0 0.177332f
c24 205 0 0.223481f
c25 202 0 15.6196f
c26 190 0 0.159697f
c27 189 0 0.060928f
c28 187 0 0.274144f
c29 181 0 0.211531f
c30 177 0 11.9622f
c31 173 0 0.595637f
c32 172 0 0.60733f
c33 168 0 0.37634f
c34 167 0 0.0835704f
c35 166 0 0.479656f
c36 165 0 0.330454f
c37 163 0 0.111279f
c38 162 0 9.68301f
c39 161 0 0.0951549f
c40 160 0 9.48227f
c41 158 0 0.514155f
c42 156 0 5.61786f
c43 151 0 0.0483783f
c44 150 0 0.362695f
c45 148 0 7.893f
c46 146 0 5.81844f
c47 136 0 0.0509035f
c48 134 0 0.42576f
c49 133 0 0.433187f
c50 132 0 0.647667f
c51 129 0 0.362506f
c52 127 0 0.294449f
c53 126 0 0.993307f
c54 125 0 0.157769f
c55 122 0 0.32916f
c56 115 0 0.775574f
c57 112 0 1.02366f
c58 111 0 0.152914f
c59 91 0 5.74487f
c60 82 0 5.71961f
c61 81 0 0.306698f
c62 69 0 0.306809f
c63 68 0 0.307233f
c64 66 0 0.307481f
c65 45 0 0.441417f
c66 40 0 3.67545f
c67 36 0 0.21068f
c68 26 0 0.148403f
c69 15 0 3.67545f
c70 11 0 0.228227f
c71 1 0 0.152838f
r72 311 328 0.375 
r73 309 311 1.3852 
r74 308 309 0.0446983 
r75 307 308 0.166 
r76 322 305 0.0175207 
r77 303 305 0.115385 
r78 300 303 0.6746 
r79 300 320 0.5 
r80 298 320 0.207375 
r81 296 298 0.5 
r82 295 296 0.518685 
r83 294 307 0.0447559 
r84 294 296 1.92188 
r85 351 293 17.4667 
r86 291 293 3 
r87 341 290 17.4613 
r88 288 290 3 
r89 288 291 0.509247 
r90 284 286 1.5 
r91 284 288 0.373333 
r92 283 295 0.044965 
r93 283 291 0.405591 
r94 282 286 1.67226 
r95 280 282 0.0704055 
r96 280 281 0.159048 
r97 279 281 0.244127 
r98 328 278 0.16686 
r99 248 279 0.0254737 
r100 219 220 1.01212 
r101 341 212 6 
r102 351 210 6 
r103 345 205 6 
r104 345 202 16.5829 
r105 199 220 6 
r106 195 219 6 
r107 190 192 0.0704 
r108 214 187 6 
r109 185 187 6 
r110 183 185 5.1424 
r111 183 210 6 
r112 202 181 6 
r113 179 181 6 
r114 179 183 0.3824 
r115 177 179 0.5648 
r116 177 212 6 
r117 175 177 4.5136 
r118 174 192 0.02 
r119 173 175 0.0446983 
r120 173 174 0.4136 
r121 171 172 0.16 
r122 170 172 0.255758 
r123 169 189 0.0338756 
r124 168 190 0.02 
r125 168 169 0.3568 
r126 166 171 0.0458133 
r127 166 167 0.3888 
r128 165 189 0.00880368 
r129 164 167 0.0446983 
r130 164 165 0.352 
r131 162 170 0.0494685 
r132 162 163 11.4292 
r133 160 189 0.0338756 
r134 160 161 8.0616 
r135 157 163 0.0494685 
r136 157 158 0.255758 
r137 155 161 0.0447042 
r138 155 156 5.21796 
r139 153 205 6 
r140 151 153 0.207059 
r141 150 156 0.0449923 
r142 150 153 0.192941 
r143 148 219 9.48606 
r144 146 148 6 
r145 145 151 0.045625 
r146 145 146 8.95636 
r147 135 214 8.53538 
r148 135 136 0.0345952 
r149 134 199 0.497662 
r150 133 195 0.486076 
r151 131 136 0.0345952 
r152 131 132 0.72 
r153 129 132 0.0447076 
r154 129 130 0.439 
r155 127 136 0.0082069 
r156 127 128 0.439 
r157 125 126 0.342439 
r158 111 112 0.367805 
r159 91 95 394.95 
r160 90 91 1.5 
r161 82 93 394.95 
r162 81 82 1.5 
r163 79 95 394.95 
r164 78 79 1.5 
r165 70 93 394.95 
r166 69 70 1.5 
r167 68 90 1.82353 
r168 68 126 0.0215446 
r169 68 130 0.0304158 
r170 81 67 1.82353 
r171 67 125 0.0205784 
r172 67 128 0.031382 
r173 66 78 1.82353 
r174 66 112 0.0195057 
r175 66 134 0.0332227 
r176 69 65 1.82353 
r177 65 111 0.0199004 
r178 65 133 0.0323089 
r179 122 45 0.0517073 
r180 45 36 6 
r181 172 36 6 
r182 27 122 1.72353 
r183 26 40 183.96 
r184 26 27 3.88985 
r185 20 115 0.0517073 
r186 20 11 6 
r187 158 11 6 
r188 2 115 1.72353 
r189 1 15 183.96 
r190 1 2 3.88985 
.ends

.subckt PM_PC3X11%U22_U82_gate 10 38 57
c0 90 0 11.5406f
c1 84 0 3.00771f
c2 79 0 1.61999f
c3 73 0 21.2837f
c4 71 0 2.18204f
c5 67 0 0.958852f
c6 57 0 1.99825f
c7 53 0 0.327417f
c8 43 0 0.102596f
c9 38 0 1.97596f
c10 25 0 0.106627f
c11 16 0 1.68733f
c12 14 0 0.895378f
c13 13 0 0.19409f
c14 9 0 0.171503f
r15 76 84 3 
r16 90 73 11.8987 
r17 71 73 3 
r18 71 76 0.71028 
r19 84 69 0.980935 
r20 67 69 1.5 
r21 64 67 0.267523 
r22 64 82 3 
r23 53 82 0.0863415 
r24 79 53 0.437073 
r25 44 53 2.05882 
r26 43 57 154.95 
r27 43 44 4.2601 
r28 26 79 2.05882 
r29 25 38 154.95 
r30 25 26 4.2601 
r31 19 90 6 
r32 14 16 6 
r33 14 19 1.13474 
r34 12 16 2.44 
r35 12 13 0.0243776 
r36 9 13 0.0193578 
r37 9 10 0.0122222 
.ends

.subckt PM_PC3X11%U12_U27$1_gate 34 39 70
c0 91 0 4.0027f
c1 87 0 1.70911f
c2 84 0 27.2939f
c3 79 0 1.07073f
c4 73 0 0.0736527f
c5 70 0 0.293862f
c6 57 0 1.31134f
c7 56 0 0.705571f
c8 55 0 0.265998f
c9 45 0 0.404939f
c10 44 0 1.90497f
c11 43 0 0.448792f
c12 39 0 1.61404f
c13 34 0 1.61404f
r14 91 84 17.36 
r15 82 84 6 
r16 79 82 1.29171 
r17 79 87 6 
r18 77 87 2.18439 
r19 73 77 0.0492189 
r20 73 70 0.101111 
r21 62 91 6 
r22 57 59 6 
r23 57 62 0.92 
r24 55 59 0.0974912 
r25 55 56 0.0344187 
r26 44 56 19.7647 
r27 44 45 1.10351 
r28 42 56 19.7647 
r29 42 43 1.10351 
r30 35 45 2.38595 
r31 35 39 117.45 
r32 31 43 2.38595 
r33 31 34 117.465 
.ends

.subckt PM_PC3X11%VSS 503 577 588 596 604 612 620 627 883 903 1553 1558 1563
+ 1570 1574 1579 1584 1589 1600 1780 1789 1922 1944 1951 1955 1959 1970
c0 1970 0 1.4664f
c1 1959 0 1.87592f
c2 1955 0 74.937f
c3 1954 0 0.558283f
c4 1953 0 88.817f
c5 1951 0 0.375483f
c6 1949 0 1.32059f
c7 1947 0 0.663338f
c8 1944 0 1.1108f
c9 1943 0 2.82382f
c10 1942 0 0.134083f
c11 1941 0 18.0923f
c12 1940 0 0.951065f
c13 1939 0 7.9154f
c14 1938 0 0.797797f
c15 1937 0 6.80988f
c16 1935 0 0.488973f
c17 1933 0 4.15101f
c18 1932 0 3.99551f
c19 1931 0 9.20093f
c20 1930 0 1.67761f
c21 1929 0 3.19061f
c22 1928 0 8.40944f
c23 1927 0 2.93041f
c24 1926 0 0.178742f
c25 1925 0 2.89476f
c26 1924 0 3.71698f
c27 1922 0 0.539167f
c28 1919 0 0.170188f
c29 1889 0 0.00301957f
c30 1887 0 0.982289f
c31 1886 0 6.62692f
c32 1885 0 0.00303892f
c33 1883 0 5.27875f
c34 1789 0 0.2532f
c35 1780 0 4.15683f
c36 1752 0 71.5834f
c37 1741 0 2.84522f
c38 1722 0 3.08104f
c39 1721 0 0.0551113f
c40 1714 0 14.973f
c41 1707 0 14.2038f
c42 1704 0 1.06039f
c43 1699 0 17.5236f
c44 1697 0 8.79376f
c45 1695 0 3.89954f
c46 1687 0 0.270234f
c47 1643 0 13.0235f
c48 1642 0 0.074111f
c49 1641 0 7.57939f
c50 1640 0 0.0664241f
c51 1639 0 8.42181f
c52 1638 0 0.31966f
c53 1637 0 2.33999f
c54 1626 0 1.8243f
c55 1625 0 4.7176f
c56 1600 0 10.886f
c57 1596 0 0.204101f
c58 1595 0 3.30248f
c59 1594 0 2.00464f
c60 1589 0 1.82333f
c61 1588 0 5.32744f
c62 1584 0 1.80352f
c63 1579 0 1.80339f
c64 1574 0 1.80303f
c65 1570 0 2.43778f
c66 1568 0 11.7681f
c67 1563 0 1.80009f
c68 1558 0 1.79964f
c69 1553 0 1.83301f
c70 1551 0 3.54949f
c71 1546 0 9.25941f
c72 1544 0 0.198142f
c73 1373 0 0.184918f
c74 1369 0 0.222173f
c75 1363 0 0.356038f
c76 1361 0 0.0913822f
c77 1329 0 4.08122f
c78 1327 0 0.0438425f
c79 1324 0 0.161087f
c80 1309 0 3.75323f
c81 1306 0 2.96285f
c82 906 0 0.298129f
c83 903 0 0.0083603f
c84 900 0 1.64908f
c85 898 0 0.115791f
c86 886 0 0.33444f
c87 883 0 1.84565e-19
c88 880 0 1.81689f
c89 878 0 0.0867484f
c90 627 0 0.257034f
c91 620 0 0.256689f
c92 612 0 0.025555f
c93 609 0 1.39209f
c94 604 0 0.00191678f
c95 601 0 1.39877f
c96 593 0 0.374923f
c97 585 0 6.67559f
c98 574 0 6.72289f
c99 571 0 2.21749f
c100 559 0 2.16078f
c101 552 0 12.0758f
c102 545 0 10.3481f
c103 541 0 0.0127626f
c104 526 0 0.197831f
c105 525 0 0.0312406f
c106 524 0 0.20268f
c107 522 0 0.0388736f
c108 521 0 12.0471f
c109 514 0 8.88842f
c110 511 0 1.28456f
c111 503 0 2.34902f
c112 499 0 5.29738f
c113 497 0 1.26493f
c114 495 0 1.43229f
c115 493 0 4.29368f
c116 485 0 2.85309f
c117 483 0 0.198156f
c118 330 0 0.361463f
c119 327 0 16.7617f
c120 323 0 0.247533f
c121 321 0 0.323934f
c122 314 0 0.0944796f
c123 311 0 0.0516124f
c124 310 0 0.0843883f
c125 308 0 1.81998f
c126 306 0 3.9317f
c127 294 0 0.23862f
c128 285 0 0.162941f
c129 283 0 3.05212f
c130 282 0 0.0362106f
c131 281 0 0.99153f
c132 279 0 1.88885f
c133 277 0 2.95615f
c134 276 0 0.027237f
c135 275 0 0.499611f
r136 1972 1973 0.202 
r137 1970 1972 0.103 
r138 1954 1955 0.0757408 
r139 1953 1954 0.00140671 
r140 1951 1953 0.0822729 
r141 1949 1951 0.000983393 
r142 1943 1944 0.0106481 
r143 1942 1943 0.0548355 
r144 1941 1942 0.0042672 
r145 1940 1941 0.191027 
r146 1939 1940 0.00921236 
r147 1938 1939 0.0906879 
r148 1937 1938 0.0237288 
r149 1932 1933 0.0716251 
r150 1931 1932 0.0486142 
r151 1930 1931 0.0944367 
r152 1929 1930 0.0159521 
r153 1928 1929 0.0277567 
r154 1927 1928 0.0839482 
r155 1926 1927 0.0344566 
r156 1925 1926 0.00151545 
r157 1924 1925 0.055673 
r158 1922 1924 0.040319 
r159 1916 1917 0.000275862 
r160 1915 1916 0.710897 
r161 1900 1901 0.70869 
r162 1898 1900 0.00110345 
r163 1889 1917 0.02 
r164 1887 1896 0.02 
r165 1886 1893 0.02 
r166 1885 1916 0.02 
r167 1884 1898 0.02 
r168 1883 1896 0.02 
r169 1882 1893 0.02 
r170 1794 1939 0.0666667 
r171 1792 1941 0.0740741 
r172 1786 1789 0.04 
r173 1786 1937 2 
r174 1783 1940 0.0535714 
r175 1901 1780 0.0877241 
r176 1780 1915 0.0877241 
r177 1780 1783 0.6155 
r178 1751 1752 1.0345 
r179 1749 1750 1.12289 
r180 1780 1749 2.59036 
r181 1747 1780 0.967229 
r182 1741 1947 0.461538 
r183 1722 1953 0.131579 
r184 1722 1967 0.101 
r185 1722 1954 0.131579 
r186 1721 1937 0.0865404 
r187 1935 1721 0.00757727 
r188 1967 1721 0.428571 
r189 1717 1718 1.69381 
r190 1714 1717 0.628223 
r191 1714 1938 0.3 
r192 1710 1711 1.65638 
r193 1707 1710 0.62928 
r194 1707 1942 0.3 
r195 1744 1704 0.25 
r196 1702 1704 0.25 
r197 1699 1702 0.646725 
r198 1699 1943 0.166667 
r199 1955 1697 0.00751547 
r200 1972 1697 0.131579 
r201 1695 1947 0.00119641 
r202 1944 1695 0.0387238 
r203 1973 1695 0.428571 
r204 1718 1687 3 
r205 1687 1749 3 
r206 1643 1900 0.02 
r207 1643 1750 0.111325 
r208 1641 1752 2.6035 
r209 1641 1642 0.0338756 
r210 1639 1783 1.2555 
r211 1639 1640 0.0338756 
r212 1637 1744 0.0727479 
r213 1637 1638 0.00434156 
r214 1889 1636 0.109524 
r215 1634 1642 0.0338756 
r216 1887 1634 1.2745 
r217 1632 1640 0.0338756 
r218 1886 1632 1.2745 
r219 1628 1642 0.00880368 
r220 1628 1780 0.9495 
r221 1627 1640 0.00880368 
r222 1627 1780 0.9945 
r223 1625 1794 0.072412 
r224 1625 1626 0.5605 
r225 1625 1600 0.0582667 
r226 1596 1600 0.4585 
r227 1595 1626 0.0446983 
r228 1595 1600 0.4715 
r229 1594 1596 0.0446983 
r230 1625 1594 0.5605 
r231 1588 1792 0.0572326 
r232 1588 1589 0.3592 
r233 1588 1584 0.3592 
r234 1588 1579 0.3592 
r235 1588 1574 0.3592 
r236 1572 1638 0.0535409 
r237 1568 1570 0.243878 
r238 1567 1638 0.0535409 
r239 1567 1570 0.0653061 
r240 1588 1563 0.3592 
r241 1588 1558 0.3592 
r242 1588 1553 0.3592 
r243 1551 1636 0.0380952 
r244 1549 1750 0.02 
r245 1548 1570 0.8165 
r246 1547 1570 0.8165 
r247 1546 1572 0.0510716 
r248 1545 1568 0.02 
r249 1544 1747 1.17157 
r250 1542 1741 1.518 
r251 1751 1373 3 
r252 1642 1371 3 
r253 1371 1369 0.000888889 
r254 1717 1369 3 
r255 1365 1373 0.0005 
r256 1710 1365 3 
r257 1363 1747 3 
r258 1711 1363 3 
r259 1361 1751 1.3475 
r260 1542 1361 0.0446983 
r261 1549 1350 0.938734 
r262 1347 1349 0.143333 
r263 1544 1346 0.0385542 
r264 1344 1346 0.14506 
r265 1780 1340 0.192 
r266 1338 1780 0.192 
r267 1337 1338 0.342 
r268 1780 1337 0.192 
r269 1335 1780 0.192 
r270 1334 1335 0.342 
r271 1780 1334 0.192 
r272 1332 1780 0.192 
r273 1331 1332 0.342 
r274 1780 1331 0.192 
r275 1329 1780 0.192 
r276 1328 1636 0.02 
r277 1328 1340 1.214 
r278 1327 1350 0.04 
r279 1327 1329 0.243 
r280 1324 1349 0.0380952 
r281 1551 1324 5.74476 
r282 1780 1320 0.159 
r283 1318 1780 0.159 
r284 1317 1318 0.408 
r285 1780 1317 0.159 
r286 1315 1780 0.159 
r287 1314 1315 0.408 
r288 1780 1314 0.159 
r289 1312 1780 0.159 
r290 1311 1312 0.408 
r291 1780 1311 0.159 
r292 1309 1780 0.159 
r293 1308 1349 0.02 
r294 1308 1320 1.247 
r295 1307 1346 0.02 
r296 1307 1309 1.243 
r297 1306 1347 0.02 
r298 1305 1344 0.02 
r299 1305 1306 4.69271 
r300 1546 903 0.131104 
r301 1570 903 0.0051505 
r302 900 906 0.123079 
r303 900 1570 0.0948495 
r304 1548 898 0.0446983 
r305 906 898 0.2285 
r306 1545 883 0.131104 
r307 1570 883 0.0051505 
r308 880 886 0.123079 
r309 880 1570 0.0948495 
r310 1547 878 0.0446983 
r311 886 878 0.2285 
r312 630 1896 0.81 
r313 1893 630 0.202 
r314 630 1935 0.375 
r315 624 627 0.0378378 
r316 624 1933 2 
r317 617 620 0.0351351 
r318 617 1931 2 
r319 609 612 1.315 
r320 609 1930 1.2 
r321 601 604 1.65 
r322 601 1929 2 
r323 593 596 0.01 
r324 593 1928 1.2 
r325 585 588 0.0806648 
r326 585 1927 0.272727 
r327 582 1925 3 
r328 574 577 0.0806648 
r329 574 1924 0.272727 
r330 571 1919 0.428571 
r331 559 1935 0.00119641 
r332 1933 559 0.0294317 
r333 1967 559 0.428571 
r334 555 556 1.10275 
r335 552 555 0.631373 
r336 552 1932 0.272727 
r337 545 1926 0.272727 
r338 542 1963 0.202 
r339 1959 542 0.103 
r340 542 1949 0.131579 
r341 541 1922 0.00594217 
r342 1919 541 0.00175474 
r343 1963 541 0.428571 
r344 523 571 0.426 
r345 522 582 1.253 
r346 522 523 0.0446983 
r347 1885 520 0.113882 
r348 520 521 0.0432941 
r349 1884 517 0.122532 
r350 513 526 0.0667074 
r351 513 514 1.04 
r352 510 526 0.0106594 
r353 510 511 0.140784 
r354 507 525 0.0149881 
r355 507 1780 1.3345 
r356 502 525 0.0313149 
r357 502 503 2.3875 
r358 500 524 0.0677496 
r359 500 1780 1.93366 
r360 499 526 0.0667074 
r361 499 1780 1.59122 
r362 496 524 0.0110999 
r363 496 497 0.137033 
r364 495 524 0.0677496 
r365 493 525 0.0149881 
r366 493 494 1.1345 
r367 490 520 0.02 
r368 487 514 0.02 
r369 486 1882 2.276 
r370 485 1780 0.2455 
r371 483 495 0.965854 
r372 481 571 1.518 
r373 1883 331 1.281 
r374 497 330 2 
r375 494 327 3 
r376 331 323 3 
r377 555 323 3 
r378 511 321 2 
r379 556 321 2 
r380 545 318 0.629665 
r381 318 327 3 
r382 318 316 1.07751 
r383 316 330 2 
r384 485 314 0.0354455 
r385 312 331 0.995 
r386 312 314 0.0354455 
r387 486 311 0.0354455 
r388 310 494 1.233 
r389 481 310 0.0446983 
r390 308 314 0.00751643 
r391 307 311 0.00751643 
r392 307 308 1.84047 
r393 306 582 2.7265 
r394 306 311 0.0354455 
r395 297 299 0.138165 
r396 292 294 0.155789 
r397 290 517 0.02 
r398 290 490 4.33826 
r399 289 517 0.02 
r400 487 289 0.763478 
r401 299 285 0.0404706 
r402 521 285 5.75048 
r403 283 299 0.02 
r404 282 283 3.47535 
r405 281 282 0.04 
r406 280 294 0.02 
r407 280 281 1.10182 
r408 279 294 0.02 
r409 278 483 0.0447708 
r410 278 279 0.798182 
r411 277 297 0.02 
r412 276 277 4.25222 
r413 276 275 0.0399503 
r414 274 292 0.02 
r415 274 275 0.673 
.ends

.subckt PM_PC3X11%VDD 195 202 209 216 223 230 237 337 342 347 352 361 473 480
+ 483 491 498 634 640 648 684 772 788 796 800 804 815
c0 815 0 1.90196f
c1 804 0 2.16974f
c2 800 0 89.1137f
c3 799 0 0.3691f
c4 798 0 88.3995f
c5 796 0 0.58397f
c6 794 0 1.13471f
c7 787 0 66.3937f
c8 766 0 0.0176789f
c9 765 0 0.0693137f
c10 764 0 1.21542f
c11 763 0 0.145729f
c12 760 0 1.50177f
c13 754 0 15.5806f
c14 750 0 7.13443f
c15 749 0 1.32164f
c16 688 0 1.60315f
c17 684 0 0.0670622f
c18 680 0 2.96386f
c19 678 0 3.09646f
c20 669 0 4.68887f
c21 666 0 6.02566f
c22 664 0 22.4184f
c23 662 0 7.58469f
c24 648 0 1.44517f
c25 646 0 0.0693347f
c26 644 0 0.057515f
c27 640 0 4.70885f
c28 635 0 4.1215f
c29 634 0 0.0385485f
c30 633 0 5.75966f
c31 632 0 5.46588f
c32 631 0 1.2041f
c33 630 0 0.71832f
c34 628 0 0.747053f
c35 583 0 0.0996392f
c36 582 0 0.102823f
c37 573 0 7.8842f
c38 540 0 14.3938f
c39 518 0 0.851696f
c40 513 0 0.520814f
c41 498 0 10.0992f
c42 483 0 1.96766f
c43 473 0 0.0234394f
c44 464 0 14.4371f
c45 456 0 4.85794f
c46 442 0 8.17545f
c47 440 0 0.0540046f
c48 423 0 11.5245f
c49 418 0 3.73497f
c50 415 0 0.164006f
c51 413 0 0.409158f
c52 406 0 2.83759f
c53 404 0 0.0475026f
c54 397 0 2.54113f
c55 394 0 11.0057f
c56 389 0 3.37205f
c57 378 0 2.08455f
c58 376 0 1.45282f
c59 373 0 1.95308f
c60 372 0 1.77468f
c61 371 0 0.320202f
c62 369 0 0.00844315f
c63 368 0 0.00844315f
c64 366 0 0.00844315f
c65 364 0 0.0629591f
c66 363 0 0.128959f
c67 360 0 0.0731685f
c68 359 0 0.194656f
c69 358 0 0.133737f
c70 356 0 0.0733053f
c71 351 0 0.288399f
c72 347 0 0.782499f
c73 342 0 1.27853f
c74 337 0 0.789282f
c75 334 0 0.0540046f
c76 332 0 0.208287f
c77 327 0 5.5202f
c78 325 0 0.115423f
c79 251 0 0.076918f
c80 250 0 4.79783f
c81 249 0 0.094745f
c82 247 0 0.571232f
c83 202 0 0.00556728f
c84 184 0 16.6547f
c85 182 0 29.737f
c86 180 0 29.3825f
c87 178 0 29.454f
c88 176 0 29.4013f
c89 174 0 29.3337f
c90 172 0 16.9147f
c91 151 0 2.44205f
r92 817 818 0.141 
r93 815 817 0.1865 
r94 799 800 0.0748873 
r95 798 799 0.00139086 
r96 796 798 0.0813458 
r97 794 796 0.000972312 
r98 788 791 0.0135155 
r99 788 790 0.0113835 
r100 786 787 0.00685084 
r101 785 786 0.0425501 
r102 780 781 0.0257923 
r103 779 780 0.126193 
r104 778 779 0.000218579 
r105 777 778 7.28597e-05 
r106 776 777 0.232204 
r107 775 776 0.0248087 
r108 774 775 0.00641166 
r109 772 774 0.0160656 
r110 766 767 0.0334303 
r111 763 764 0.0335268 
r112 761 765 0.0576508 
r113 761 762 0.0338756 
r114 760 763 0.0477027 
r115 767 760 0.799375 
r116 757 766 0.01 
r117 756 765 0.00647627 
r118 750 765 0.0576508 
r119 749 764 0.0335268 
r120 691 785 0.5 
r121 688 786 0.125 
r122 678 791 0.4 
r123 669 798 0.0925926 
r124 669 812 0.0705 
r125 669 799 0.0925926 
r126 668 785 0.00845173 
r127 783 668 0.0070674 
r128 812 668 0.6 
r129 800 666 0.00743078 
r130 817 666 0.0925926 
r131 791 664 0.0217122 
r132 818 664 0.6 
r133 662 684 0.0752896 
r134 660 662 0.125 
r135 787 660 0.104382 
r136 657 680 0.5 
r137 657 660 0.0401241 
r138 653 764 0.00909727 
r139 652 762 0.00880368 
r140 652 691 0.936 
r141 648 651 0.0107143 
r142 648 647 0.0150161 
r143 647 688 0.0257143 
r144 645 646 0.00909727 
r145 643 680 0.936 
r146 643 644 0.00880368 
r147 651 640 0.023166 
r148 638 646 0.0335268 
r149 749 638 1.94963 
r150 636 644 0.0338756 
r151 635 762 0.0338756 
r152 635 636 1.974 
r153 645 634 1.263 
r154 680 634 0.449 
r155 653 634 1.263 
r156 691 634 0.449 
r157 633 646 0.0335268 
r158 633 634 0.818765 
r159 632 644 0.0338756 
r160 630 631 0.0739054 
r161 630 640 0.151351 
r162 628 684 0.151351 
r163 625 678 1.84 
r164 624 678 0.808 
r165 583 634 2.97136 
r166 625 583 0.0447005 
r167 582 632 3.8375 
r168 624 582 0.0446983 
r169 575 657 0.0323079 
r170 573 575 0.102485 
r171 573 790 0.266413 
r172 564 631 0.429217 
r173 628 564 0.0739054 
r174 554 555 0.357383 
r175 553 554 1.99327 
r176 548 549 0.324231 
r177 547 548 0.340769 
r178 546 547 0.340769 
r179 545 546 0.340769 
r180 544 545 0.340731 
r181 540 542 0.0746538 
r182 534 535 0.304151 
r183 533 534 0.33434 
r184 532 533 0.33434 
r185 531 532 0.33434 
r186 530 531 0.334302 
r187 757 518 0.3225 
r188 756 518 0.322 
r189 518 783 0.461538 
r190 513 516 0.0897196 
r191 513 555 1.5 
r192 509 554 2 
r193 500 553 0.153846 
r194 498 509 0.0358879 
r195 498 500 0.0103019 
r196 494 754 0.330667 
r197 488 491 1.525 
r198 488 779 0.666667 
r199 480 483 1.9475 
r200 477 480 0.0025 
r201 477 778 0.75 
r202 470 473 1.535 
r203 470 777 0.666667 
r204 498 467 2.47 
r205 467 540 2 
r206 464 528 0.0758868 
r207 462 464 2 
r208 462 498 2.457 
r209 456 524 1.5 
r210 456 460 0.0897196 
r211 454 524 0.360755 
r212 452 454 2 
r213 498 452 0.0358879 
r214 498 447 0.66243 
r215 446 454 1.96528 
r216 444 446 0.162162 
r217 444 447 0.626542 
r218 498 444 0.0358879 
r219 498 442 0.66243 
r220 440 774 0.461538 
r221 426 783 0.00123862 
r222 781 426 0.0282332 
r223 812 426 0.6 
r224 423 553 1.52262 
r225 421 423 0.272727 
r226 418 421 1.22579 
r227 418 781 0.1875 
r228 494 415 6 
r229 413 415 6 
r230 429 413 1.85189 
r231 410 544 0.235231 
r232 542 410 0.0651538 
r233 408 410 0.153846 
r234 406 408 0.642885 
r235 406 780 0.133333 
r236 404 429 0.0783225 
r237 404 406 0.139808 
r238 402 530 0.242491 
r239 528 402 0.0616604 
r240 400 402 0.153846 
r241 397 400 0.630755 
r242 397 776 0.133333 
r243 394 446 1.45396 
r244 392 394 0.333333 
r245 389 392 1.35509 
r246 389 775 0.2 
r247 386 808 0.141 
r248 804 386 0.1865 
r249 386 794 0.0925926 
r250 385 772 0.00528233 
r251 808 385 0.6 
r252 381 754 6 
r253 376 378 6 
r254 376 381 2.19718 
r255 375 378 3.15042 
r256 373 491 2.375 
r257 372 473 2.375 
r258 367 440 0.0475949 
r259 367 368 0.015165 
r260 365 440 0.158987 
r261 365 366 0.015165 
r262 363 375 0.0449058 
r263 363 364 0.153651 
r264 360 371 0.0664609 
r265 360 361 0.102703 
r266 359 364 0.0664609 
r267 359 361 0.0443243 
r268 358 373 0.0446983 
r269 357 372 0.0446983 
r270 357 358 0.51 
r271 371 356 0.598095 
r272 351 356 0.066959 
r273 351 352 0.0443243 
r274 346 369 0.0309988 
r275 346 347 2.7475 
r276 341 368 0.0309988 
r277 341 342 2.7475 
r278 336 366 0.0309988 
r279 336 337 2.7475 
r280 335 369 0.015165 
r281 334 369 0.015165 
r282 333 368 0.015165 
r283 333 334 0.206582 
r284 332 366 0.015165 
r285 328 498 1.07664 
r286 327 328 0.045921 
r287 327 467 0.321 
r288 325 462 0.324 
r289 324 325 0.045921 
r290 324 442 1.07664 
r291 251 634 3.33531 
r292 250 766 0.02 
r293 250 634 2.61531 
r294 750 249 6.025 
r295 247 335 0.333165 
r296 247 251 0.0447074 
r297 246 332 0.460759 
r298 246 249 0.0447006 
r299 535 235 1.5 
r300 235 237 0.765343 
r301 534 228 1.5 
r302 228 230 0.46673 
r303 533 221 1.5 
r304 221 223 0.479431 
r305 532 214 1.5 
r306 214 216 0.479431 
r307 531 207 1.5 
r308 207 209 0.479431 
r309 530 200 1.5 
r310 200 202 0.479431 
r311 528 193 1.5 
r312 193 195 0.765343 
r313 195 184 0.737863 
r314 542 184 1.5 
r315 202 182 0.453839 
r316 544 182 1 
r317 209 180 0.453839 
r318 545 180 1.5 
r319 216 178 0.453839 
r320 546 178 1.5 
r321 223 176 0.453839 
r322 547 176 1.5 
r323 230 174 0.46654 
r324 548 174 1.5 
r325 237 172 0.737863 
r326 549 172 1.5 
r327 152 460 0.02 
r328 152 498 2.504 
r329 151 516 0.02 
r330 151 498 2.44889 
.ends

.subckt PM_PC3X11%VDDO 1276 1283 1290 1297 1304 1311 1318 1333 1449 1679 1684
+ 1695 1699 1703 1708 1711 1716 1723 1727 1740 1744 1755 1766
c0 1770 0 8.64104f
c1 1763 0 0.635796f
c2 1759 0 0.718142f
c3 1757 0 1.77462f
c4 1755 0 4.9617f
c5 1754 0 21.2913f
c6 1753 0 19.4327f
c7 1752 0 2.83165f
c8 1751 0 0.142336f
c9 1749 0 39.1071f
c10 1747 0 36.825f
c11 1744 0 2.39307f
c12 1742 0 1.47811f
c13 1740 0 4.50919f
c14 1739 0 19.2962f
c15 1738 0 15.8909f
c16 1737 0 1.24899f
c17 1736 0 0.00235831f
c18 1733 0 1.00139f
c19 1731 0 29.8755f
c20 1730 0 31.4257f
c21 1727 0 1.95821f
c22 1721 0 0.844782f
c23 1719 0 11.9746f
c24 1716 0 1.39496f
c25 1715 0 1.59097f
c26 1711 0 0.729943f
c27 1708 0 1.23978f
c28 1707 0 1.22683f
c29 1703 0 0.576661f
c30 1699 0 17.8711f
c31 1698 0 0.101566f
c32 1697 0 22.1318f
c33 1695 0 0.20691f
c34 1693 0 0.205959f
c35 1689 0 26.9829f
c36 1683 0 3.69919f
c37 1668 0 25.3541f
c38 1565 0 10.1872f
c39 1536 0 3.71224f
c40 1528 0 32.6706f
c41 1508 0 1.61523f
c42 1506 0 6.46207f
c43 1504 0 15.6049f
c44 1498 0 15.2743f
c45 1492 0 1.56504f
c46 1490 0 48.7762f
c47 1473 0 0.718369f
c48 1471 0 0.267637f
c49 1454 0 5.76422f
c50 1452 0 0.0999272f
c51 1448 0 0.374545f
c52 1447 0 0.0835179f
c53 1348 0 11.4095f
c54 1347 0 0.271006f
c55 1345 0 0.246114f
c56 1343 0 0.156449f
c57 1323 0 7.04151f
c58 1255 0 7.37435f
c59 1244 0 11.914f
c60 1242 0 19.2906f
c61 1240 0 19.2906f
c62 1238 0 19.3055f
c63 1236 0 19.2906f
c64 1234 0 19.2906f
c65 1232 0 11.7828f
c66 1208 0 0.114758f
c67 1207 0 4.34323f
c68 1204 0 0.103657f
c69 1203 0 5.77745f
c70 413 0 12.558f
c71 412 0 0.0999272f
c72 385 0 0.0835179f
c73 259 0 0.227427f
c74 257 0 0.827281f
c75 256 0 0.848839f
c76 254 0 0.756619f
r77 1770 1771 0.887193 
r78 1766 1767 0.1065 
r79 1763 1766 0.2445 
r80 1755 1757 0.00225726 
r81 1754 1755 0.0231369 
r82 1753 1754 0.0714689 
r83 1752 1753 0.0682324 
r84 1751 1752 0.0236183 
r85 1749 1751 0.00627386 
r86 1749 1771 0.08 
r87 1747 1749 0.112465 
r88 1744 1747 0.106174 
r89 1740 1742 0.00277946 
r90 1739 1740 0.0280765 
r91 1738 1739 0.0903122 
r92 1737 1738 0.0792145 
r93 1736 1737 0.0283787 
r94 1735 1736 0.0029003 
r95 1733 1735 0.00515609 
r96 1733 1770 0.08 
r97 1731 1733 0.0152266 
r98 1730 1731 0.117503 
r99 1727 1730 0.132427 
r100 1721 1723 0.2445 
r101 1720 1735 0.02 
r102 1719 1731 0.02 
r103 1753 1715 0.00227273 
r104 1715 1716 0.0447635 
r105 1738 1707 0.0025 
r106 1707 1708 0.0561128 
r107 1698 1699 0.425229 
r108 1697 1698 0.00789762 
r109 1695 1697 0.461901 
r110 1693 1695 0.00552102 
r111 1692 1770 0.686648 
r112 1691 1692 0.02 
r113 1759 1690 1.5 
r114 1690 1691 0.0136122 
r115 1759 1688 1.5 
r116 1688 1690 0.00775599 
r117 1688 1689 0.0484712 
r118 1683 1691 0.008 
r119 1683 1684 0.492941 
r120 1677 1679 0.056102 
r121 1668 1670 0.02 
r122 1666 1670 0.02 
r123 1565 1673 0.945581 
r124 1670 1565 0.941395 
r125 1536 1600 0.942056 
r126 1736 1536 0.24 
r127 1533 1697 0.5 
r128 1759 1533 0.1755 
r129 1533 1698 0.5 
r130 1720 1530 0.8712 
r131 1528 1530 0.5646 
r132 1757 1526 0.171429 
r133 1754 1524 0.3 
r134 1524 1522 0.0893538 
r135 1754 1522 0.3 
r136 1522 1520 0.0893538 
r137 1754 1520 0.3 
r138 1520 1518 0.0850462 
r139 1754 1518 0.3 
r140 1752 1516 0.3 
r141 1516 1514 0.0893538 
r142 1752 1514 0.3 
r143 1514 1512 0.0893538 
r144 1752 1512 0.3 
r145 1512 1510 0.0850462 
r146 1752 1510 0.3 
r147 1600 1508 0.648972 
r148 1751 1508 0.181818 
r149 1742 1506 0.2 
r150 1504 1581 1.23077e-05 
r151 1739 1504 0.3 
r152 1581 1502 0.08528 
r153 1739 1502 0.3 
r154 1500 1524 0.0893538 
r155 1502 1500 0.0893538 
r156 1739 1500 0.3 
r157 1498 1591 1.23077e-05 
r158 1737 1498 0.3 
r159 1591 1496 0.08528 
r160 1737 1496 0.3 
r161 1494 1516 0.0893538 
r162 1496 1494 0.0893538 
r163 1737 1494 0.3 
r164 1699 1492 0.0421938 
r165 1767 1492 0.5 
r166 1684 1490 0.0423094 
r167 1763 1490 1.5 
r168 1476 1570 6 
r169 1471 1473 6 
r170 1471 1476 0.4096 
r171 1565 1469 0.165 
r172 1454 1673 0.02 
r173 1454 1469 0.16 
r174 1453 1473 0.7088 
r175 1452 1565 0.339 
r176 1448 1453 0.0466151 
r177 1448 1449 0.0311111 
r178 1668 1447 6.328 
r179 1444 1452 0.0447743 
r180 1444 1565 1.85395 
r181 1443 1447 0.0447743 
r182 1443 1565 1.84558 
r183 1350 1570 0.246452 
r184 1570 1348 0.205161 
r185 1350 1347 3 
r186 1530 1347 3 
r187 1345 1469 1.5 
r188 1528 1345 1.5 
r189 1348 1343 6 
r190 1530 1343 6 
r191 1333 1341 0.159252 
r192 1331 1333 0.11215 
r193 1330 1331 0.11215 
r194 1333 1330 0.159252 
r195 1323 1333 0.159252 
r196 1333 1273 0.159252 
r197 1266 1333 0.159252 
r198 1265 1266 0.0149533 
r199 1333 1265 0.0971963 
r200 1255 1333 0.159252 
r201 1333 1246 0.0208503 
r202 1600 1246 0.109091 
r203 1276 1244 0.900879 
r204 1591 1244 0.3 
r205 1283 1242 0.625802 
r206 1496 1242 0.3 
r207 1290 1240 0.625802 
r208 1494 1240 0.3 
r209 1297 1238 0.625802 
r210 1516 1238 0.3 
r211 1304 1236 0.625802 
r212 1514 1236 0.3 
r213 1311 1234 0.625802 
r214 1512 1234 0.3 
r215 1318 1232 0.900879 
r216 1510 1232 0.3 
r217 1230 1276 0.949011 
r218 1581 1230 0.3 
r219 1228 1283 0.659237 
r220 1502 1228 0.3 
r221 1226 1290 0.659237 
r222 1500 1226 0.3 
r223 1224 1297 0.659237 
r224 1524 1224 0.3 
r225 1222 1304 0.659237 
r226 1522 1222 0.3 
r227 1220 1311 0.659237 
r228 1520 1220 0.3 
r229 1218 1318 0.949011 
r230 1518 1218 0.3 
r231 1215 1526 0.695327 