* File: pt3t01u.dist.sp.pex
* Created: Sun Jul  4 13:06:37 2010
* Program "Calibre xRC"
* Version "v2008.4_19.14"
* Nominal Temperature: 27C
* Circuit Temperature: 27C
* 
.subckt PM_PT3T01U%PAD 21 50 79 108 137 166 218 242 266 290 320 326 389 428 452
+ 459
c0 467 0 27.053f
c1 460 0 83.2668f
c2 459 0 64.3341f
c3 456 0 159.215f
c4 451 0 0.991473f
c5 444 0 9.96781f
c6 434 0 12.9928f
c7 425 0 0.117887f
c8 423 0 213.927f
c9 408 0 15.3329f
c10 397 0 46.9214f
c11 392 0 65.4578f
c12 390 0 15.8916f
c13 389 0 1.04909f
c14 388 0 3.85001f
c15 326 0 13.3895f
c16 320 0 13.3816f
c17 290 0 13.3793f
c18 266 0 13.3917f
c19 242 0 13.6577f
c20 218 0 13.378f
c21 176 0 7.52869f
c22 166 0 2.98552f
c23 149 0 6.78371f
c24 137 0 2.98555f
c25 120 0 6.78371f
c26 108 0 2.98555f
c27 91 0 6.78371f
c28 79 0 2.98555f
c29 62 0 6.78371f
c30 50 0 2.98555f
c31 33 0 6.78371f
c32 21 0 2.98542f
c33 4 0 6.78371f
r34 467 468 0.118407 
r35 466 467 0.118407 
r36 465 466 0.056883 
r37 464 465 0.061524 
r38 463 464 0.118407 
r39 462 463 0.0830354 
r40 461 462 0.0353716 
r41 459 460 0.0124825 
r42 457 459 0.000593149 
r43 456 457 0.0669731 
r44 451 452 0.00916 
r45 444 462 0.0545455 
r46 434 465 0.015 
r47 425 428 0.00916 
r48 425 451 2 
r49 423 434 0.0264274 
r50 421 423 0.147454 
r51 421 422 0.0288462 
r52 415 416 0.00752787 
r53 414 415 0.021023 
r54 412 414 0.000537705 
r55 412 456 0.00162999 
r56 410 412 0.000537705 
r57 408 410 0.0285508 
r58 399 451 0.1388 
r59 398 399 0.132996 
r60 397 398 0.0171733 
r61 394 395 0.0171733 
r62 393 394 0.0171733 
r63 392 393 0.0171733 
r64 391 397 0.0142401 
r65 391 395 0.00293318 
r66 390 422 0.00646891 
r67 390 392 0.00818451 
r68 388 444 0.202116 
r69 388 389 0.0147368 
r70 315 320 0.0072093 
r71 392 315 0.0566038 
r72 313 326 0.0072093 
r73 398 313 0.0566038 
r74 286 290 0.0072093 
r75 397 286 0.0566038 
r76 262 266 0.0072093 
r77 395 262 0.0566038 
r78 238 242 0.0072093 
r79 394 238 0.0566038 
r80 214 218 0.0072093 
r81 393 214 0.0566038 
r82 194 197 0.0022831 
r83 416 194 0.0375475 
r84 194 457 0.00547945 
r85 414 193 0.00210084 
r86 191 193 0.000537705 
r87 410 191 0.00210084 
r88 193 182 0.0105115 
r89 415 182 0.00712251 
r90 178 197 0.0187738 
r91 182 178 0.00376393 
r92 416 178 0.00712251 
r93 176 191 0.0142754 
r94 408 176 0.00356125 
r95 460 173 0.345778 
r96 172 468 0.0220132 
r97 172 173 0.319822 
r98 166 153 0.00249413 
r99 173 153 0.0425532 
r100 149 166 0.00249413 
r101 173 149 0.0425532 
r102 460 144 0.345778 
r103 143 467 0.0220132 
r104 143 144 0.319822 
r105 137 124 0.00249413 
r106 144 124 0.0425532 
r107 120 137 0.00249413 
r108 144 120 0.0425532 
r109 460 115 0.345778 
r110 114 466 0.0220132 
r111 114 115 0.319822 
r112 108 95 0.00249413 
r113 115 95 0.0425532 
r114 91 108 0.00249413 
r115 115 91 0.0425532 
r116 460 86 0.345778 
r117 85 464 0.0220132 
r118 85 86 0.319822 
r119 79 66 0.00249413 
r120 86 66 0.0425532 
r121 62 79 0.00249413 
r122 86 62 0.0425532 
r123 460 57 0.345778 
r124 56 463 0.0220132 
r125 56 57 0.319822 
r126 50 37 0.00249413 
r127 57 37 0.0425532 
r128 33 50 0.00249413 
r129 57 33 0.0425532 
r130 460 28 0.345778 
r131 27 461 0.0220132 
r132 27 28 0.319822 
r133 21 8 0.00249413 
r134 28 8 0.0425532 
r135 4 21 0.00249413 
r136 28 4 0.0425532 
.ends

.subckt PM_PT3T01U%noxref_2 8 18
c0 20 0 4.82415f
c1 18 0 0.993329f
c2 8 0 6.71042f
r3 18 20 0.158105 
r4 20 8 0.158526 
.ends

.subckt PM_PT3T01U%U27_padr 40 44 52 118 120 122 164 173
c0 253 0 16.152f
c1 247 0 9.32043f
c2 238 0 15.9129f
c3 224 0 0.145078f
c4 223 0 0.0372956f
c5 222 0 0.0478417f
c6 221 0 0.0873247f
c7 218 0 6.60484f
c8 215 0 0.611623f
c9 213 0 0.144222f
c10 209 0 5.63999f
c11 207 0 0.516633f
c12 205 0 0.0693973f
c13 204 0 0.207306f
c14 203 0 0.411447f
c15 194 0 0.951446f
c16 189 0 2.0898f
c17 183 0 0.456639f
c18 173 0 1.07645f
c19 172 0 0.703354f
c20 168 0 2.45283f
c21 167 0 0.272746f
c22 164 0 0.855295f
c23 145 0 0.0984887f
c24 138 0 0.0817276f
c25 130 0 16.0637f
c26 122 0 1.08689f
c27 120 0 0.584528f
c28 118 0 1.05007f
c29 92 0 0.134724f
c30 88 0 0.428056f
c31 85 0 0.642623f
c32 84 0 0.408492f
c33 82 0 0.097915f
c34 79 0 1.52621f
c35 78 0 0.526158f
c36 75 0 0.396028f
c37 72 0 0.0501311f
c38 71 0 0.0346516f
c39 70 0 0.0750437f
c40 65 0 0.106118f
c41 62 0 0.104069f
c42 58 0 0.319095f
c43 56 0 0.0672112f
c44 55 0 0.107019f
c45 52 0 1.30997f
c46 49 0 0.0421449f
c47 48 0 0.374357f
c48 44 0 1.94779f
c49 40 0 1.20671f
r50 253 240 0.172857 
r51 238 240 6 
r52 234 236 3.424 
r53 224 226 3 
r54 223 224 0.109474 
r55 223 221 0.0456991 
r56 221 222 0.147143 
r57 218 253 2 
r58 216 222 0.0446983 
r59 216 218 10.3129 
r60 215 226 0.30381 
r61 211 213 0.10375 
r62 247 209 0.185079 
r63 207 209 1.2 
r64 206 207 0.482857 
r65 204 206 0.0446983 
r66 204 205 0.125714 
r67 203 205 0.0446983 
r68 202 215 0.0446983 
r69 202 203 0.407619 
r70 199 200 6 
r71 196 238 6.74933 
r72 236 196 4.804 
r73 194 196 6 
r74 194 199 0.8816 
r75 182 213 0.02 
r76 182 183 0.755 
r77 178 211 0.02 
r78 172 247 0.18836 
r79 172 173 0.0147368 
r80 167 200 0.0840267 
r81 165 167 0.0448127 
r82 165 168 2.62845 
r83 168 164 0.0773806 
r84 129 130 1.07733 
r85 110 122 168.333 
r86 110 145 3.92502 
r87 105 120 51.6667 
r88 104 105 1.66667 
r89 97 118 168.333 
r90 138 97 3.6393 
r91 189 92 6 
r92 89 192 0.8025 
r93 189 89 2.8475 
r94 89 130 6 
r95 88 145 0.77 
r96 192 88 6 
r97 85 187 1.2525 
r98 85 236 6 
r99 84 138 0.7825 
r100 187 84 6 
r101 183 82 6 
r102 79 180 0.8 
r103 178 79 2.045 
r104 79 129 6 
r105 180 78 6 
r106 75 176 0.482667 
r107 75 234 6 
r108 74 129 2.552 
r109 176 74 6 
r110 72 92 0.05 
r111 68 70 0.12 
r112 68 78 0.8825 
r113 66 82 0.04375 
r114 65 66 0.02 
r115 63 65 0.10375 
r116 62 72 0.0446983 
r117 61 71 0.0338756 
r118 61 62 0.1875 
r119 58 104 1.16667 
r120 57 71 0.0338756 
r121 57 58 0.245 
r122 55 71 0.00880368 
r123 55 56 0.25 
r124 51 56 0.0446983 
r125 51 52 1.2575 
r126 50 52 1.3775 
r127 48 50 0.0447588 
r128 48 49 0.544 
r129 70 44 2.375 
r130 39 63 0.02 
r131 39 40 1.40875 
r132 38 49 0.0447588 
r133 38 40 1.3775 
.ends

.subckt PM_PT3T01U%VDDO 757 762 769 776 783 790 797 804 863 869 873 919 946 951
+ 958 985 1039 1324 1328 1331 1336 1343 1350 1371 1399 1410 1418 1425 1431 1437
+ 1443 1449 1455 1465 1507 1522 1551 1556
c0 1556 0 20.9278f
c1 1548 0 4.33677f
c2 1539 0 6.89048f
c3 1530 0 8.82377f
c4 1525 0 6.16278f
c5 1522 0 50.735f
c6 1503 0 2.98997f
c7 1469 0 9.62052f
c8 1462 0 0.481903f
c9 1455 0 1.38187f
c10 1449 0 2.71574f
c11 1443 0 1.36785f
c12 1437 0 1.73596f
c13 1431 0 1.91949f
c14 1425 0 2.46067f
c15 1422 0 3.08994f
c16 1407 0 0.505282f
c17 1403 0 30.3478f
c18 1402 0 1.96564f
c19 1399 0 63.1175f
c20 1398 0 1.51937f
c21 1349 0 51.3096f
c22 1339 0 0.601206f
c23 1338 0 1.41036f
c24 1336 0 3.00485f
c25 1328 0 2.50489f
c26 1310 0 0.331843f
c27 1306 0 0.149617f
c28 1300 0 0.234896f
c29 1290 0 0.619196f
c30 1286 0 0.191655f
c31 1282 0 0.616262f
c32 1279 0 0.0603713f
c33 1277 0 0.500225f
c34 1272 0 2.33488f
c35 1235 0 9.76182f
c36 1063 0 0.33202f
c37 1047 0 11.835f
c38 1034 0 0.457512f
c39 1007 0 4.04218f
c40 1002 0 0.114454f
c41 1001 0 1.67655f
c42 999 0 0.239363f
c43 995 0 0.00598355f
c44 993 0 8.21343f
c45 992 0 3.44758f
c46 987 0 0.913174f
c47 984 0 0.0193183f
c48 982 0 0.0208492f
c49 981 0 5.47914f
c50 978 0 0.174994f
c51 968 0 0.0968285f
c52 965 0 0.0596675f
c53 964 0 3.19619f
c54 963 0 1.09777f
c55 958 0 1.44757f
c56 955 0 0.451293f
c57 951 0 1.3839f
c58 939 0 0.359158f
c59 936 0 0.693246f
c60 932 0 0.0413754f
c61 931 0 0.413579f
c62 930 0 0.0297498f
c63 929 0 0.709826f
c64 928 0 0.320685f
c65 919 0 1.07926f
c66 809 0 7.40097f
c67 797 0 0.0234212f
c68 790 0 0.0106158f
c69 783 0 0.0106158f
c70 776 0 0.0106158f
c71 769 0 0.0106158f
c72 762 0 0.00937345f
c73 757 0 7.09563f
c74 729 0 12.0261f
c75 727 0 19.7205f
c76 725 0 19.7202f
c77 723 0 19.7473f
c78 721 0 19.7205f
c79 719 0 19.5248f
c80 717 0 11.8056f
c81 691 0 0.114758f
c82 690 0 6.34481f
c83 687 0 0.103657f
c84 686 0 6.27029f
c85 17 0 0.486838f
c86 16 0 6.73982f
c87 7 0 0.152029f
c88 6 0 6.75738f
r89 1551 1554 0.00394881 
r90 1548 1549 0.956244 
r91 1541 1542 0.279231 
r92 1539 1541 0.266538 
r93 1532 1533 0.273962 
r94 1530 1532 0.261509 
r95 1526 1527 1.79477 
r96 1525 1526 0.000373832 
r97 1519 1520 0.251983 
r98 1518 1519 0.0888453 
r99 1517 1518 0.0205664 
r100 1516 1517 0.0309368 
r101 1515 1516 0.0417429 
r102 1514 1515 0.0124619 
r103 1513 1514 0.0660566 
r104 1512 1513 0.0256209 
r105 1511 1512 0.0186492 
r106 1505 1522 0.00304139 
r107 1520 1505 0.00174292 
r108 1503 1505 0.461538 
r109 1462 1465 0.0002 
r110 1462 1519 0.666667 
r111 1458 1518 0.6 
r112 1455 1458 0.4475 
r113 1452 1517 0.6 
r114 1449 1452 1.6625 
r115 1446 1516 0.666667 
r116 1443 1446 0.365 
r117 1440 1515 0.545455 
r118 1437 1440 1.4825 
r119 1434 1514 0.545455 
r120 1431 1434 1.63 
r121 1428 1513 0.5 
r122 1425 1428 1.455 
r123 1424 1511 0.00174292 
r124 1507 1424 0.00305011 
r125 1422 1424 0.461538 
r126 1418 1548 0.2 
r127 1414 1556 0.0039415 
r128 1554 1414 0.467422 
r129 1412 1414 0.5 
r130 1410 1412 0.181 
r131 1407 1410 0.17 
r132 1407 1520 1.5 
r133 1404 1405 0.5433 
r134 1403 1404 0.2247 
r135 1402 1418 0.0539366 
r136 1402 1405 0.099 
r137 1549 1398 0.698216 
r138 1396 1398 0.2 
r139 1396 1399 0.0136564 
r140 1542 1395 0.279231 
r141 1395 1393 0.279231 
r142 1393 1391 0.279231 
r143 1391 1389 0.266538 
r144 1387 1389 1.5 
r145 1387 1391 1.5 
r146 1387 1393 1.5 
r147 1387 1395 1.5 
r148 1387 1396 0.0314855 
r149 1533 1385 0.273962 
r150 1385 1383 0.273962 
r151 1383 1381 0.273962 
r152 1381 1379 0.261509 
r153 1377 1379 1.5 
r154 1377 1381 1.5 
r155 1377 1383 1.5 
r156 1377 1385 1.5 
r157 1527 1376 0.000747664 
r158 1374 1376 0.2 
r159 1374 1377 0.0334274 
r160 1371 1374 0.01361 
r161 1365 1541 1.5 
r162 1365 1539 1.5 
r163 1365 1542 1.5 
r164 1363 1365 0.0694058 
r165 1357 1532 1.5 
r166 1357 1530 1.5 
r167 1357 1363 0.0805639 
r168 1357 1533 1.5 
r169 1353 1525 0.2 
r170 1353 1357 0.0404834 
r171 1350 1353 0.0165962 
r172 1349 1418 0.0234268 
r173 1349 1365 0.0330312 
r174 1346 1554 0.5 
r175 1343 1346 0.181 
r176 1339 1511 1.5 
r177 1339 1343 0.17 
r178 1338 1403 0.5293 
r179 1334 1336 0.0526456 
r180 1331 1334 0.0552365 
r181 1312 1315 3 
r182 1469 1312 0.0677429 
r183 1310 1312 3 
r184 1469 1302 0.1116 
r185 1500 1302 0.0028 
r186 1300 1302 6 
r187 1276 1279 0.0446983 
r188 1276 1277 0.510588 
r189 1235 1500 0.2648 
r190 1234 1500 0.2664 
r191 1233 1500 0.2664 
r192 1059 1063 1 
r193 1056 1306 3 
r194 1053 1056 0.2885 
r195 1053 1286 2 
r196 1047 1290 1.2 
r197 1045 1047 1.03355 
r198 1043 1045 10.1755 
r199 1038 1039 2.645 
r200 1300 1020 0.000149533 
r201 1338 1019 0.0555566 
r202 1019 1020 6 
r203 1018 1315 0.0444444 
r204 1310 1018 7.40741e-05 
r205 1338 1017 0.0279474 
r206 1017 1018 1.5 
r207 1286 1016 0.000233918 
r208 1404 1016 2 
r209 1290 1014 0.000114123 
r210 1403 1014 1.2 
r211 1063 1012 0.000100503 
r212 1405 1012 1 
r213 1306 1010 0.000299625 
r214 1404 1010 3 
r215 1282 1007 6 
r216 1282 1004 0.804286 
r217 1004 1045 6 
r218 1279 1002 0.102353 
r219 1002 1043 3 
r220 1277 1001 3 
r221 1272 999 6 
r222 1272 996 3.395 
r223 996 1038 6 
r224 995 1034 0.0484211 
r225 1512 995 2 
r226 993 1059 0.219259 
r227 992 1056 0.0845 
r228 991 1007 5.04429 
r229 985 987 0.605623 
r230 983 1053 1.917 
r231 983 984 0.0149881 
r232 981 1039 0.4775 
r233 981 982 0.013668 
r234 980 1001 2.48824 
r235 976 999 0.175 
r236 975 978 0.1525 
r237 975 976 0.02 
r238 968 1038 0.567 
r239 967 1503 0.526 
r240 967 993 0.0447005 
r241 966 1503 2.122 
r242 966 992 0.0446983 
r243 964 991 0.0446983 
r244 964 965 3.31857 
r245 985 963 0.584127 
r246 962 965 0.0446983 
r247 962 963 1.02286 
r248 957 984 0.0313149 
r249 957 958 1.51 
r250 956 982 0.013668 
r251 955 984 0.0149881 
r252 955 956 0.2995 
r253 950 982 0.0337919 
r254 950 951 1.64138 
r255 987 946 1.36714 
r256 936 939 0.81913 
r257 935 939 0.309565 
r258 931 980 0.0468981 
r259 931 932 0.906087 
r260 929 935 0.0446983 
r261 929 930 1.70609 
r262 928 932 0.0446983 
r263 927 930 0.0446983 
r264 927 928 0.782609 
r265 918 978 0.02 
r266 918 919 1.3925 
r267 914 1422 2.122 
r268 914 968 0.0446983 
r269 939 873 5.56667 
r270 936 869 5.56667 
r271 863 1034 5.54444 
r272 809 757 0.159252 
r273 820 757 0.159252 
r274 757 827 0.159252 
r275 731 820 0.0829907 
r276 757 731 0.0291589 
r277 1549 731 0.1 
r278 762 729 0.793846 
r279 1539 729 1.5 
r280 769 727 0.55145 
r281 1541 727 1.5 
r282 776 725 0.55145 
r283 1542 725 1.5 
r284 783 723 0.55145 
r285 1395 723 1.5 
r286 790 721 0.55145 
r287 1393 721 1.5 
r288 797 719 0.55145 
r289 1391 719 1.5 
r290 804 717 0.793846 
r291 1389 717 1.5 
r292 715 762 0.842637 
r293 1530 715 1.5 
r294 713 769 0.585344 
r295 1532 713 1.5 
r296 711 776 0.585344 
r297 1533 711 1.5 
r298 709 783 0.585344 
r299 1385 709 1.5 
r300 707 790 0.585344 
r301 1383 707 1.5 
r302 705 797 0.585344 
r303 1381 705 1.5 
r304 703 804 0.842637 
r305 1379 703 1.5 
r306 757 701 0.0391734 
r307 1527 701 0.2 
r308 699 757 0.0397569 
r309 1526 699 0.2 
r310 697 827 0.73271 
r311 696 809 0.737944 
r312 695 757 0.73271 
r313 694 757 0.737944 
r314 691 695 0.0451326 
r315 691 757 2.504 
r316 690 697 0.0451326 
r317 690 757 2.44889 
r318 687 694 0.045921 
r319 687 757 2.687 
r320 686 696 0.045921 
r321 686 757 2.885 
r322 323 1387 0.0601494 
r323 1377 323 0.0634357 
r324 323 1334 0.00227273 
r325 322 1328 0.0620926 
r326 1324 322 0.0688218 
r327 1363 322 0.0025 
r328 17 1500 1.51848 
r329 16 1235 0.0447329 
r330 16 1500 1.51162 
r331 15 1312 0.0737243 
r332 15 17 0.0447329 
r333 1234 7 0.0447329 
r334 7 1500 1.51848 
r335 6 1233 0.0447329 
r336 6 1500 1.51162 
.ends

.subckt PM_PT3T01U%net_m1_VSSO_res 9 38
c0 39 0 0.709078f
c1 33 0 0.889647f
c2 30 0 0.86023f
c3 24 0 0.0628831f
c4 23 0 0.326767f
c5 22 0 0.0527767f
c6 21 0 1.38576f
c7 20 0 0.868668f
r8 33 39 2.46349 
r9 33 38 1.8 
r10 29 30 0.987826 
r11 25 39 0.596923 
r12 23 25 0.0472932 
r13 23 24 0.351765 
r14 21 29 0.0468981 
r15 21 22 2.02471 
r16 20 24 0.0446983 
r17 19 22 0.0446983 
r18 19 20 1.4 
r19 30 9 5.56667 
.ends

.subckt PM_PT3T01U%net_m56_VSSO_res 41 69 76 81 88 122
c0 122 0 0.73297f
c1 118 0 0.841746f
c2 112 0 0.054493f
c3 98 0 0.0628754f
c4 92 0 0.235924f
c5 88 0 0.519409f
c6 86 0 0.19588f
c7 85 0 0.135544f
c8 81 0 0.519409f
c9 76 0 0.519409f
c10 74 0 0.102851f
c11 73 0 0.162435f
c12 69 0 0.722094f
c13 48 0 0.599132f
c14 46 0 0.0473762f
c15 45 0 0.370185f
r16 113 118 0.0552941 
r17 112 113 0.02 
r18 111 112 0.124706 
r19 99 122 85 
r20 96 118 2.20253 
r21 95 97 6.2212 
r22 95 96 1.5553 
r23 94 95 10.0922 
r24 93 98 2.23066 
r25 92 99 3.37824 
r26 92 93 10.8571 
r27 87 98 0.93595 
r28 87 88 85 
r29 86 97 4.70046 
r30 85 98 2.23066 
r31 85 86 9 
r32 80 97 1.5553 
r33 80 81 85 
r34 75 94 1.5553 
r35 75 76 85 
r36 73 94 2.90323 
r37 73 74 10.8571 
r38 68 74 3.37824 
r39 68 69 85 
r40 47 48 0.18 
r41 111 46 0.0446983 
r42 45 47 0.0446983 
r43 45 46 0.530588 
r44 48 41 5.56667 
.ends

.subckt PM_PT3T01U%VSS 805 827 836 858 863 874 877 883
c0 883 0 89.5536f
c1 874 0 53.8088f
c2 861 0 2.37405f
c3 858 0 0.00368951f
c4 855 0 1.24098f
c5 836 0 4.21885f
c6 835 0 43.7514f
c7 824 0 1.88726f
c8 816 0 15.419f
c9 802 0 1.45509f
c10 773 0 24.8158f
c11 771 0 0.0842555f
c12 770 0 10.0298f
c13 769 0 0.0657505f
c14 768 0 7.41255f
c15 767 0 0.571035f
c16 766 0 0.184939f
c17 764 0 0.57837f
c18 763 0 0.0372194f
c19 756 0 0.144425f
c20 747 0 8.78056f
c21 745 0 0.194573f
c22 743 0 1.92708f
c23 628 0 2.47774f
c24 620 0 2.22376f
c25 612 0 1.35232f
c26 610 0 0.229265f
c27 608 0 0.276497f
c28 605 0 24.8221f
c29 599 0 0.816164f
c30 598 0 6.34069f
c31 595 0 0.0996875f
c32 592 0 2.03915f
c33 586 0 0.137389f
c34 585 0 2.48633f
c35 584 0 0.154374f
c36 583 0 2.25381f
c37 539 0 0.162892f
c38 537 0 0.721903f
c39 535 0 0.203897f
c40 510 0 2.94296f
c41 496 0 3.05919f
c42 494 0 0.031054f
c43 490 0 6.91131f
c44 489 0 0.161087f
c45 474 0 3.75184f
c46 471 0 2.9639f
r47 881 883 0.000702051 
r48 880 881 0.0832563 
r49 877 880 0.000703354 
r50 873 874 0.00318245 
r51 870 871 0.0344168 
r52 869 870 0.167059 
r53 868 869 0.128574 
r54 867 868 0.0141176 
r55 861 873 0.461538 
r56 855 858 1.28857 
r57 855 871 1.5 
r58 849 869 0.0535714 
r59 835 836 2.301 
r60 831 873 0.00119641 
r61 871 831 0.0758524 
r62 829 831 0.428571 
r63 827 829 0.189 
r64 824 827 0.013 
r65 824 881 0.131579 
r66 820 821 0.56934 
r67 819 820 1.12447 
r68 816 819 0.628223 
r69 816 870 0.3 
r70 809 867 0.089651 
r71 863 809 0.00438684 
r72 807 809 0.428571 
r73 805 807 0.189 
r74 802 805 0.013 
r75 802 880 0.131579 
r76 836 796 2.59036 
r77 770 771 0.0338756 
r78 768 849 2.8715 
r79 768 769 0.0338756 
r80 762 771 0.0338756 
r81 761 769 0.0338756 
r82 758 771 0.00880368 
r83 758 836 0.958 
r84 757 769 0.00880368 
r85 757 836 0.986 
r86 756 764 0.0574488 
r87 766 756 0.0632911 
r88 753 763 0.0448201 
r89 750 861 1.518 
r90 749 861 0.426 
r91 747 796 1.08482 
r92 743 753 2.13041 
r93 770 622 0.733 
r94 836 622 1.93 
r95 620 789 3 
r96 617 849 1.612 
r97 763 617 1.283 
r98 617 868 1.5 
r99 615 836 1.07807 
r100 745 615 1.06072 
r101 615 628 1 
r102 789 612 0.24 
r103 820 612 1.5 
r104 622 610 3 
r105 819 610 3 
r106 608 796 3 
r107 821 608 3 
r108 605 813 1.1314 
r109 605 867 0.125 
r110 604 628 0.0075 
r111 625 604 0.056 
r112 813 604 0.24 
r113 602 767 0.102486 
r114 602 766 0.0155975 
r115 773 602 1 
r116 600 773 0.9662 
r117 600 625 0.02 
r118 599 762 0.5005 
r119 750 599 0.0446983 
r120 598 761 0.5005 
r121 749 598 0.0446983 
r122 597 620 0.830244 
r123 596 620 0.573659 
r124 595 835 0.8025 
r125 743 595 0.0448201 
r126 591 592 1.37048 
r127 586 597 0.0448242 
r128 586 587 0.678222 
r129 585 592 0.0447675 
r130 585 587 0.650667 
r131 584 596 0.0446983 
r132 583 591 0.0447067 
r133 583 584 1.45854 
r134 538 539 0.147619 
r135 534 535 0.14988 
r136 747 534 0.0380723 
r137 531 533 0.143333 
r138 745 530 0.0385542 
r139 528 530 0.14506 
r140 836 527 0.159 
r141 510 836 0.159 
r142 509 539 0.02 
r143 509 527 1.247 
r144 508 535 0.02 
r145 508 510 1.243 
r146 836 507 0.192 
r147 505 836 0.192 
r148 504 505 0.342 
r149 836 504 0.192 
r150 502 836 0.192 
r151 501 502 0.342 
r152 836 501 0.192 
r153 499 836 0.192 
r154 498 499 0.342 
r155 836 498 0.192 
r156 496 836 0.192 
r157 495 538 0.02 
r158 495 507 1.214 
r159 494 537 0.04 
r160 494 496 0.243 
r161 492 534 0.02 
r162 492 537 0.938734 
r163 490 538 0.0380952 
r164 490 767 4.80524 
r165 489 764 0.555238 
r166 489 533 0.0380952 
r167 836 485 0.159 
r168 483 836 0.159 
r169 482 483 0.408 
r170 836 482 0.159 
r171 480 836 0.159 
r172 479 480 0.408 
r173 836 479 0.159 
r174 477 836 0.159 
r175 476 477 0.408 
r176 836 476 0.159 
r177 474 836 0.159 
r178 473 533 0.02 
r179 473 485 1.247 
r180 472 530 0.02 
r181 472 474 1.243 
r182 471 531 0.02 
r183 470 528 0.02 
r184 470 471 4.69271 
.ends

.subckt PM_PT3T01U%U27_U69$9_gate 245 250 255 260 265 270 275 280 285 290 310
c0 461 0 0.256896f
c1 457 0 0.130993f
c2 455 0 0.468837f
c3 450 0 0.467067f
c4 445 0 0.467405f
c5 440 0 0.465045f
c6 431 0 2.82662f
c7 413 0 0.46935f
c8 412 0 0.241502f
c9 411 0 0.253188f
c10 410 0 0.250962f
c11 409 0 0.266543f
c12 408 0 0.304369f
c13 406 0 0.273588f
c14 404 0 0.0792102f
c15 403 0 0.329567f
c16 400 0 6.54958f
c17 394 0 2.90071f
c18 393 0 0.826075f
c19 389 0 1.16801f
c20 388 0 0.853604f
c21 384 0 1.16067f
c22 383 0 0.848372f
c23 379 0 1.16148f
c24 378 0 0.885176f
c25 375 0 0.187255f
c26 374 0 1.12723f
c27 373 0 0.649014f
c28 372 0 0.278218f
c29 369 0 0.136486f
c30 363 0 0.0903556f
c31 355 0 0.171215f
c32 349 0 0.680566f
c33 341 0 0.534782f
c34 333 0 0.534241f
c35 325 0 0.534344f
c36 317 0 0.533624f
c37 311 0 0.29991f
c38 310 0 0.278026f
c39 301 0 0.163718f
c40 300 0 0.61524f
c41 299 0 0.171605f
c42 298 0 0.619562f
c43 297 0 0.172568f
c44 296 0 0.615205f
c45 295 0 0.171591f
c46 294 0 0.615196f
c47 293 0 0.171517f
c48 292 0 0.550488f
c49 290 0 3.10391f
c50 285 0 3.04442f
c51 280 0 3.04446f
c52 275 0 3.04438f
c53 270 0 3.04443f
c54 265 0 3.04438f
c55 260 0 3.04444f
c56 255 0 3.04437f
c57 250 0 3.04436f
c58 245 0 3.10208f
r59 415 461 0.00341463 
r60 413 415 3 
r61 407 413 0.05061 
r62 407 408 0.662857 
r63 406 413 0.05061 
r64 405 406 0.202353 
r65 403 408 0.0446983 
r66 403 404 0.352857 
r67 400 457 6 
r68 398 404 0.0448488 
r69 398 400 6.78194 
r70 395 412 0.10286 
r71 394 405 0.0487211 
r72 394 395 3.431 
r73 393 412 0.0222484 
r74 392 455 0.00195122 
r75 452 392 0.0536585 
r76 391 393 0.0749883 
r77 391 392 1.5 
r78 390 411 0.10517 
r79 389 412 0.10286 
r80 389 390 1.442 
r81 388 411 0.0227793 
r82 387 450 0.000487805 
r83 447 387 0.055122 
r84 386 388 0.0717218 
r85 386 387 1.5 
r86 385 410 0.104738 
r87 384 411 0.10517 
r88 384 385 1.433 
r89 383 410 0.0226815 
r90 382 445 0.00292683 
r91 442 382 0.0526829 
r92 381 383 0.0723175 
r93 381 382 1.5 
r94 380 409 0.107692 
r95 379 410 0.104738 
r96 379 380 1.434 
r97 378 409 0.0233358 
r98 377 440 0.00536585 
r99 437 377 0.0502439 
r100 376 378 0.0683519 
r101 376 377 1.5 
r102 374 409 0.107692 
r103 374 375 1.392 
r104 373 375 0.0672421 
r105 433 372 0.0521951 
r106 371 373 0.112802 
r107 371 372 3 
r108 367 457 0.130323 
r109 366 369 0.153548 
r110 366 367 0.02 
r111 363 431 6 
r112 361 369 0.02 
r113 361 363 0.132903 
r114 360 431 3.99613 
r115 359 360 0.026898 
r116 355 359 0.10143 
r117 355 310 0.106667 
r118 301 349 1.85294 
r119 300 341 5.05882 
r120 299 341 5.05882 
r121 298 333 5.05882 
r122 297 333 5.05882 
r123 296 325 5.05882 
r124 295 325 5.05882 
r125 294 317 5.05882 
r126 293 317 5.05882 
r127 292 311 1.85294 
r128 287 301 3.88985 
r129 287 290 183.96 
r130 282 300 3.88985 
r131 282 285 183.96 
r132 277 299 3.88985 
r133 277 280 183.96 
r134 272 298 3.88985 
r135 272 275 183.96 
r136 267 297 3.88985 
r137 267 270 183.96 
r138 262 296 3.88985 
r139 262 265 183.96 
r140 257 295 3.88985 
r141 257 260 183.96 
r142 252 294 3.88985 
r143 252 255 183.96 
r144 247 293 3.88985 
r145 247 250 183.96 
r146 242 292 3.88985 
r147 242 245 183.96 
r148 349 171 0.00142683 
r149 461 171 3 
r150 341 153 0.00142683 
r151 455 153 3 
r152 333 128 0.00142683 
r153 450 128 3 
r154 341 117 0.0277856 
r155 452 117 3 
r156 325 92 0.00142683 
r157 445 92 3 
r158 333 81 0.0277856 
r159 447 81 3 
r160 317 56 0.00142683 
r161 440 56 3 
r162 325 45 0.0277856 
r163 442 45 3 
r164 311 20 0.00142683 
r165 433 20 3 
r166 317 9 0.0277856 
r167 437 9 3 
.ends

.subckt PM_PT3T01U%VSSO 348 354 358 621 825 829 836 865 872 879 898 900 905 912
+ 918 922 926 933 939 946 952 956 963 969 973 980 986 998 1038 1044 1048 1054
c0 1054 0 31.6523f
c1 1041 0 1.99786f
c2 1038 0 10.8291f
c3 1032 0 7.93618f
c4 1030 0 6.97364f
c5 1025 0 6.99784f
c6 1020 0 6.99831f
c7 1015 0 6.99822f
c8 1010 0 6.99883f
c9 1002 0 0.0977524f
c10 998 0 0.00391448f
c11 993 0 8.95235f
c12 986 0 0.342408f
c13 973 0 1.36597f
c14 969 0 1.40025f
c15 956 0 1.35721f
c16 952 0 1.35624f
c17 939 0 1.34294f
c18 926 0 1.22309f
c19 922 0 1.08373f
c20 918 0 0.838455f
c21 905 0 1.37163f
c22 903 0 0.19571f
c23 900 0 0.00100381f
c24 898 0 8.25608e-19
c25 896 0 8.96457f
c26 884 0 7.85536f
c27 878 0 1.27875f
c28 868 0 1.65707f
c29 865 0 58.2583f
c30 832 0 1.32473f
c31 829 0 10.6388f
c32 822 0 0.185758f
c33 815 0 0.101817f
c34 809 0 0.100006f
c35 807 0 0.143529f
c36 805 0 0.0416974f
c37 804 0 0.329685f
c38 803 0 2.40564f
c39 800 0 4.57673f
c40 797 0 0.114889f
c41 796 0 0.0401332f
c42 795 0 1.50334f
c43 793 0 0.0508991f
c44 792 0 0.316672f
c45 762 0 34.2402f
c46 761 0 0.609572f
c47 757 0 0.521534f
c48 751 0 0.708327f
c49 747 0 0.0309889f
c50 746 0 3.24523f
c51 744 0 0.383003f
c52 743 0 0.713156f
c53 742 0 0.303464f
c54 741 0 3.27963f
c55 740 0 0.383249f
c56 738 0 0.500453f
c57 736 0 0.0159556f
c58 735 0 0.582549f
c59 731 0 1.83396f
c60 729 0 0.0561467f
c61 728 0 0.18317f
c62 727 0 0.335343f
c63 694 0 0.122915f
c64 693 0 8.91677f
c65 660 0 0.269869f
c66 656 0 7.03694f
c67 653 0 0.146306f
c68 455 0 0.60415f
c69 442 0 0.867853f
c70 440 0 0.101171f
c71 438 0 0.0452257f
c72 436 0 1.45716f
c73 435 0 0.0300181f
c74 422 0 0.837085f
c75 421 0 0.114324f
c76 418 0 0.539718f
c77 414 0 0.0481945f
c78 413 0 0.437966f
c79 400 0 0.11401f
c80 318 0 5.26263f
c81 282 0 14.0366f
c82 232 0 14.047f
c83 182 0 14.047f
c84 132 0 14.047f
c85 82 0 14.0469f
c86 10 0 0.146306f
r87 1052 1054 0.00282778 
r88 1051 1052 0.355444 
r89 1048 1051 0.00283333 
r90 1043 1045 0.0213115 
r91 1043 1044 0.02 
r92 1041 1043 0.00327869 
r93 1004 1005 0.0140639 
r94 997 998 0.0126606 
r95 1032 995 0.0113761 
r96 993 995 0.0638298 
r97 990 1036 2 
r98 986 990 0.000380952 
r99 898 997 0.013211 
r100 993 898 0.000917431 
r101 896 898 0.000913242 
r102 896 1004 0.0638298 
r103 884 1004 0.0113242 
r104 882 884 0.0327869 
r105 881 882 0.029258 
r106 878 881 0.0131449 
r107 878 879 0.02 
r108 875 1052 0.357143 
r109 872 875 0.21 
r110 870 1038 0.00544385 
r111 1036 870 0.0345455 
r112 868 870 1 
r113 868 872 0.445 
r114 863 865 0.00612761 
r115 863 1032 0.0327869 
r116 980 861 0.130435 
r117 861 1030 0.00301741 
r118 1027 861 0.00301741 
r119 859 861 0.0266667 
r120 859 863 0.0287785 
r121 963 858 0.130435 
r122 858 1025 0.00301741 
r123 1022 858 0.00301741 
r124 856 858 0.0266667 
r125 856 859 0.0242129 
r126 946 855 0.130435 
r127 855 1020 0.00301741 
r128 1017 855 0.00301741 
r129 853 855 0.0266667 
r130 853 856 0.0242129 
r131 852 853 0.000615582 
r132 933 851 0.130435 
r133 851 1015 0.00301741 
r134 1012 851 0.00301741 
r135 849 851 0.0266667 
r136 849 852 0.0235973 
r137 912 848 0.130435 
r138 848 1010 0.00301741 
r139 1007 848 0.00301741 
r140 846 848 0.0266667 
r141 846 849 0.0242129 
r142 845 881 0.02 
r143 845 846 0.0277012 
r144 882 842 0.446124 
r145 839 1051 0.357143 
r146 836 839 0.21 
r147 834 1047 0.144162 
r148 1045 834 0.0334426 
r149 832 834 1 
r150 832 836 0.445 
r151 821 1036 0.129519 
r152 821 822 0.00180503 
r153 818 903 3 
r154 815 818 0.0536842 
r155 809 1002 0.0410689 
r156 807 809 3 
r157 806 807 0.148421 
r158 804 806 0.044878 
r159 804 805 0.407059 
r160 803 805 0.0446983 
r161 802 822 0.0865289 
r162 802 803 3.69176 
r163 799 815 0.02 
r164 799 800 6.36632 
r165 796 797 0.1275 
r166 795 796 0.0448391 
r167 794 795 2.75862 
r168 792 794 0.044715 
r169 792 793 0.466667 
r170 973 791 0.285 
r171 789 791 0.6 
r172 969 788 0.32 
r173 786 788 0.6 
r174 786 789 0.0396791 
r175 956 785 0.36 
r176 783 785 0.6 
r177 783 786 0.043262 
r178 952 782 0.37 
r179 780 782 0.6 
r180 780 783 0.0347594 
r181 779 780 0.0194118 
r182 939 778 0.3225 
r183 776 778 0.6 
r184 776 779 0.0935829 
r185 926 775 0.325 
r186 773 775 0.6 
r187 773 776 0.0253476 
r188 922 772 0.3425 
r189 770 772 0.6 
r190 770 773 0.0252406 
r191 918 769 0.04 
r192 767 769 0.75 
r193 767 770 0.0447059 
r194 905 766 0.365 
r195 764 766 0.6 
r196 764 767 0.0226738 
r197 763 1041 0.02 
r198 763 764 0.114225 
r199 762 822 0.00180503 
r200 762 789 0.0330481 
r201 761 793 0.0450432 
r202 1047 761 1.29371 
r203 757 815 0.02 
r204 757 758 0.737895 
r205 753 998 0.230275 
r206 751 993 0.210275 
r207 747 903 0.109474 
r208 745 900 0.229041 
r209 745 746 0.0863581 
r210 743 896 0.209132 
r211 743 744 0.0863581 
r212 753 741 0.0861375 
r213 741 742 0.132033 
r214 751 740 0.0861375 
r215 736 738 0.201086 
r216 736 735 0.0421961 
r217 1002 735 1.01412 
r218 747 731 0.0420103 
r219 730 731 3.01467 
r220 728 730 0.0446983 
r221 728 729 0.278667 
r222 727 729 0.0447588 
r223 694 898 0.128 
r224 693 742 0.0473573 
r225 693 898 0.126 
r226 660 694 0.0473573 
r227 746 660 0.132033 
r228 656 898 0.126 
r229 654 898 0.128 
r230 653 654 0.0473573 
r231 653 744 0.250407 
r232 738 621 5.56667 
r233 800 444 6 
r234 779 442 0.75 
r235 797 440 3 
r236 438 455 0.0494737 
r237 758 438 2 
r238 435 442 0.437895 
r239 435 436 0.0407126 
r240 421 444 0.0413535 
r241 421 422 1.14783 
r242 417 418 0.221176 
r243 413 417 0.0446983 
r244 413 414 0.608235 
r245 411 414 0.0446983 
r246 411 436 2.01647 
r247 400 727 0.6025 
r248 400 440 0.0265396 
r249 422 358 5.56667 
r250 418 354 5.56667 
r251 348 455 5.54444 
r252 321 829 0.0419737 
r253 825 321 0.0413851 
r254 852 321 0.00128205 
r255 842 318 2.21804 
r256 318 1045 0.6 
r257 980 282 0.00313778 
r258 1030 282 0.0652174 
r259 995 271 0.0141284 
r260 271 997 0.0652174 
r261 963 232 0.00313778 
r262 1025 232 0.0652174 
r263 222 980 0.00313778 
r264 1027 222 0.0652174 
r265 946 182 0.00313778 
r266 1020 182 0.0652174 
r267 172 963 0.00313778 
r268 1022 172 0.0652174 
r269 933 132 0.00313778 
r270 1015 132 0.0652174 
r271 122 946 0.00313778 
r272 1017 122 0.0652174 
r273 912 82 0.00313778 
r274 1010 82 0.0652174 
r275 72 933 0.00313778 
r276 1012 72 0.0652174 
r277 32 900 0.0126027 
r278 898 32 0.0131507 
r279 1005 32 0.0652174 
r280 22 912 0.00313778 
r281 1007 22 0.0652174 
r282 10 740 0.250407 
r283 10 656 0.0473573 
.ends

.subckt PM_PT3T01U%U15_ngate 56 63 70 77 85 93 141 147
c0 200 0 0.452495f
c1 192 0 16.5199f
c2 185 0 0.533878f
c3 180 0 1.11628f
c4 178 0 0.0560832f
c5 177 0 6.96327f
c6 176 0 4.81172f
c7 173 0 0.195375f
c8 170 0 0.463651f
c9 168 0 0.100464f
c10 149 0 0.606482f
c11 148 0 0.167058f
c12 147 0 3.04886f
c13 141 0 3.04886f
c14 108 0 0.134458f
c15 105 0 1.31821f
c16 104 0 0.137181f
c17 101 0 0.815491f
c18 100 0 0.0377296f
c19 99 0 0.0461791f
c20 98 0 0.0265254f
c21 97 0 0.0265254f
c22 93 0 0.992537f
c23 90 0 0.128355f
c24 89 0 1.64717f
c25 85 0 1.26111f
c26 82 0 0.0804526f
c27 81 0 0.252089f
c28 77 0 1.33816f
c29 74 0 0.348431f
c30 70 0 1.42004f
c31 67 0 0.25093f
c32 63 0 1.459f
c33 61 0 0.0503336f
c34 60 0 0.292203f
c35 56 0 1.43019f
r36 191 192 0.397333 
r37 188 191 7.02133 
r38 180 183 0.0698008 
r39 180 200 1.5 
r40 177 183 0.02 
r41 177 178 8.927 
r42 175 178 0.0451545 
r43 175 176 7.7397 
r44 188 173 6 
r45 171 173 6 
r46 170 176 0.0448752 
r47 170 171 0.582667 
r48 166 168 0.0755556 
r49 159 166 0.02 
r50 185 156 0.00142683 
r51 153 185 0.0277856 
r52 149 185 5.05882 
r53 148 185 5.05882 
r54 143 149 3.88985 
r55 143 147 183.96 
r56 138 148 3.88985 
r57 138 141 183.96 
r58 108 118 0.0370021 
r59 168 108 6 
r60 105 164 2.59143 
r61 105 192 6 
r62 164 104 6 
r63 159 101 1.53143 
r64 101 191 6 
r65 99 104 0.0613333 