* File: pt3t03u.dist.sp.pex
* Created: Sun Jul  4 13:11:28 2010
* Program "Calibre xRC"
* Version "v2008.4_19.14"
* Nominal Temperature: 27C
* Circuit Temperature: 27C
* 
.subckt PM_PT3T03U%PAD 21 50 79 108 137 166 218 242 266 290 320 326 389 428 452
+ 459
c0 467 0 29.5735f
c1 460 0 83.0964f
c2 459 0 64.3341f
c3 456 0 159.215f
c4 451 0 0.991473f
c5 444 0 9.95468f
c6 434 0 13.8464f
c7 425 0 0.117887f
c8 423 0 213.256f
c9 408 0 15.3329f
c10 397 0 46.9214f
c11 392 0 65.4578f
c12 390 0 15.8911f
c13 389 0 1.04872f
c14 388 0 3.88278f
c15 326 0 13.3728f
c16 320 0 13.3831f
c17 290 0 13.3635f
c18 266 0 13.3725f
c19 242 0 13.6388f
c20 218 0 13.36f
c21 176 0 7.52869f
c22 166 0 2.98552f
c23 149 0 6.78371f
c24 137 0 2.98621f
c25 120 0 6.78371f
c26 108 0 2.98621f
c27 91 0 6.78371f
c28 79 0 2.98621f
c29 62 0 6.78371f
c30 50 0 2.9855f
c31 33 0 6.78371f
c32 21 0 2.98537f
c33 4 0 6.78371f
r34 467 468 0.118407 
r35 466 467 0.118407 
r36 465 466 0.056883 
r37 464 465 0.061524 
r38 463 464 0.118407 
r39 462 463 0.0830354 
r40 461 462 0.0353716 
r41 459 460 0.0124825 
r42 457 459 0.000593149 
r43 456 457 0.0669731 
r44 451 452 0.00916 
r45 444 462 0.0545455 
r46 434 465 0.015 
r47 425 428 0.00916 
r48 425 451 2 
r49 423 434 0.0264274 
r50 421 423 0.147454 
r51 421 422 0.0288462 
r52 415 416 0.00752787 
r53 414 415 0.021023 
r54 412 414 0.000537705 
r55 412 456 0.00162999 
r56 410 412 0.000537705 
r57 408 410 0.0285508 
r58 399 451 0.1388 
r59 398 399 0.132996 
r60 397 398 0.0171733 
r61 394 395 0.0171733 
r62 393 394 0.0171733 
r63 392 393 0.0171733 
r64 391 397 0.0142401 
r65 391 395 0.00293318 
r66 390 422 0.00646891 
r67 390 392 0.00818451 
r68 388 444 0.202116 
r69 388 389 0.0147368 
r70 315 320 0.0072093 
r71 392 315 0.0566038 
r72 313 326 0.0072093 
r73 398 313 0.0566038 
r74 286 290 0.0072093 
r75 397 286 0.0566038 
r76 262 266 0.0072093 
r77 395 262 0.0566038 
r78 238 242 0.0072093 
r79 394 238 0.0566038 
r80 214 218 0.0072093 
r81 393 214 0.0566038 
r82 194 197 0.0022831 
r83 416 194 0.0375475 
r84 194 457 0.00547945 
r85 414 193 0.00210084 
r86 191 193 0.000537705 
r87 410 191 0.00210084 
r88 193 182 0.0105115 
r89 415 182 0.00712251 
r90 178 197 0.0187738 
r91 182 178 0.00376393 
r92 416 178 0.00712251 
r93 176 191 0.0142754 
r94 408 176 0.00356125 
r95 460 173 0.345778 
r96 172 468 0.0220132 
r97 172 173 0.319822 
r98 166 153 0.00249413 
r99 173 153 0.0425532 
r100 149 166 0.00249413 
r101 173 149 0.0425532 
r102 460 144 0.345778 
r103 143 467 0.0220132 
r104 143 144 0.319822 
r105 137 124 0.00249413 
r106 144 124 0.0425532 
r107 120 137 0.00249413 
r108 144 120 0.0425532 
r109 460 115 0.345778 
r110 114 466 0.0220132 
r111 114 115 0.319822 
r112 108 95 0.00249413 
r113 115 95 0.0425532 
r114 91 108 0.00249413 
r115 115 91 0.0425532 
r116 460 86 0.345778 
r117 85 464 0.0220132 
r118 85 86 0.319822 
r119 79 66 0.00249413 
r120 86 66 0.0425532 
r121 62 79 0.00249413 
r122 86 62 0.0425532 
r123 460 57 0.345778 
r124 56 463 0.0220132 
r125 56 57 0.319822 
r126 50 37 0.00249413 
r127 57 37 0.0425532 
r128 33 50 0.00249413 
r129 57 33 0.0425532 
r130 460 28 0.345778 
r131 27 461 0.0220132 
r132 27 28 0.319822 
r133 21 8 0.00249413 
r134 28 8 0.0425532 
r135 4 21 0.00249413 
r136 28 4 0.0425532 
.ends

.subckt PM_PT3T03U%noxref_2 8 18
c0 20 0 4.82229f
c1 18 0 0.98902f
c2 8 0 6.70703f
r3 18 20 0.158105 
r4 20 8 0.158526 
.ends

.subckt PM_PT3T03U%net_m20_VSSO_res 21 102 106 110 114 118
c0 118 0 0.519409f
c1 114 0 0.519409f
c2 110 0 0.519409f
c3 106 0 0.722728f
c4 102 0 0.73297f
c5 98 0 0.840865f
c6 92 0 0.0544917f
c7 58 0 0.0628754f
c8 48 0 0.236393f
c9 47 0 0.19588f
c10 46 0 0.135544f
c11 45 0 0.100649f
c12 44 0 0.162435f
c13 28 0 0.561629f
c14 26 0 0.0477785f
c15 25 0 0.363804f
r16 93 98 0.0552941 
r17 92 93 0.02 
r18 91 92 0.124706 
r19 59 102 85 
r20 57 118 85 
r21 57 58 0.93595 
r22 56 114 85 
r23 55 56 1.5553 
r24 54 98 2.20253 
r25 53 55 6.2212 
r26 53 54 1.5553 
r27 52 110 85 
r28 51 53 10.0922 
r29 51 52 1.5553 
r30 50 106 85 
r31 49 58 2.23066 
r32 48 59 3.37824 
r33 48 49 10.8571 
r34 47 55 4.70046 
r35 46 58 2.23066 
r36 46 47 9 
r37 45 50 3.37824 
r38 44 51 2.90323 
r39 44 45 10.8571 
r40 27 28 0.18 
r41 91 26 0.0446983 
r42 25 27 0.0446983 
r43 25 26 0.521176 
r44 28 21 5.56667 
.ends

.subckt PM_PT3T03U%U29_padr 40 44 52 118 120 122 164 171
c0 257 0 16.1732f
c1 251 0 9.31824f
c2 244 0 0.855999f
c3 240 0 15.9574f
c4 226 0 0.145078f
c5 225 0 0.0372956f
c6 224 0 0.0478417f
c7 223 0 0.0873247f
c8 220 0 6.60484f
c9 217 0 0.611623f
c10 215 0 0.145688f
c11 211 0 5.63632f
c12 209 0 0.516633f
c13 207 0 0.0693973f
c14 206 0 0.207306f
c15 205 0 0.411447f
c16 196 0 0.814031f
c17 191 0 2.02756f
c18 185 0 0.54384f
c19 173 0 0.306894f
c20 171 0 1.07645f
c21 170 0 0.703354f
c22 164 0 0.515204f
c23 145 0 0.0984887f
c24 138 0 0.0817276f
c25 130 0 16.0877f
c26 122 0 1.0541f
c27 120 0 0.572967f
c28 118 0 1.02328f
c29 92 0 0.134724f
c30 88 0 0.430672f
c31 85 0 0.564034f
c32 84 0 0.372644f
c33 82 0 0.114634f
c34 79 0 1.71151f
c35 78 0 0.632067f
c36 75 0 0.397157f
c37 72 0 0.0453459f
c38 71 0 0.0323182f
c39 70 0 0.0845293f
c40 65 0 0.13853f
c41 62 0 0.0978874f
c42 58 0 0.315524f
c43 56 0 0.0695685f
c44 55 0 0.0982496f
c45 52 0 1.2618f
c46 49 0 0.0688621f
c47 48 0 0.372832f
c48 44 0 2.39984f
c49 40 0 2.31489f
r50 257 242 0.172857 
r51 240 242 6 
r52 236 238 3.984 
r53 226 228 3 
r54 225 226 0.109474 
r55 225 223 0.0456991 
r56 223 224 0.147143 
r57 220 257 2 
r58 218 224 0.0446983 
r59 218 220 10.3129 
r60 217 228 0.30381 
r61 213 215 0.10375 
r62 251 211 0.185079 
r63 209 211 1.2 
r64 208 209 0.482857 
r65 206 208 0.0446983 
r66 206 207 0.125714 
r67 205 207 0.0446983 
r68 204 217 0.0446983 
r69 204 205 0.407619 
r70 201 244 6 
r71 198 240 2.524 
r72 238 198 8.46933 
r73 196 198 6 
r74 196 201 1.32516 
r75 184 215 0.02 
r76 184 185 0.755 
r77 180 213 0.02 
r78 174 244 1.28774 
r79 173 174 0.123174 
r80 170 251 0.18836 
r81 170 171 0.0147368 
r82 165 173 0.0200258 
r83 165 164 0.0431111 
r84 129 130 1.07733 
r85 110 122 168.333 
r86 110 145 3.92502 
r87 105 120 51.6667 
r88 104 105 1.66667 
r89 97 118 168.333 
r90 138 97 3.6393 
r91 191 92 6 
r92 89 194 0.8025 
r93 191 89 2.8475 
r94 89 130 6 
r95 88 145 0.77 
r96 194 88 6 
r97 85 189 1.2525 
r98 85 238 6 
r99 84 138 0.7825 
r100 189 84 6 
r101 185 82 6 
r102 79 182 0.8 
r103 180 79 2.045 
r104 79 129 6 
r105 182 78 6 
r106 75 178 0.482667 
r107 75 236 6 
r108 74 129 3.112 
r109 178 74 6 
r110 72 92 0.05 
r111 68 70 0.12 
r112 68 78 0.8825 
r113 66 82 0.04375 
r114 65 66 0.02 
r115 63 65 0.10375 
r116 62 72 0.0446983 
r117 61 71 0.0338756 
r118 61 62 0.1875 
r119 58 104 1.16667 
r120 57 71 0.0338756 
r121 57 58 0.245 
r122 55 71 0.00880368 
r123 55 56 0.25 
r124 51 56 0.0446983 
r125 51 52 1.2575 
r126 50 52 1.3775 
r127 48 50 0.0447588 
r128 48 49 0.544 
r129 70 44 2.375 
r130 39 63 0.02 
r131 39 40 1.40875 
r132 38 49 0.0447588 
r133 38 40 1.3775 
.ends

.subckt PM_PT3T03U%VDDO 762 769 776 783 790 797 804 817 863 869 873 930 961 966
+ 973 1001 1060 1302 1369 1373 1376 1380 1388 1395 1416 1445 1455 1463 1470 1476
+ 1482 1488 1494 1500 1506 1512 1518 1569 1586 1615 1620
c0 1620 0 20.9887f
c1 1612 0 4.28415f
c2 1603 0 6.89048f
c3 1594 0 8.82377f
c4 1589 0 6.12782f
c5 1586 0 51.1958f
c6 1565 0 2.99311f
c7 1531 0 9.6143f
c8 1518 0 1.38187f
c9 1512 0 2.71531f
c10 1506 0 2.1001f
c11 1500 0 1.36358f
c12 1494 0 1.72206f
c13 1488 0 1.95537f
c14 1482 0 0.814691f
c15 1476 0 1.88642f
c16 1470 0 2.46926f
c17 1467 0 3.09146f
c18 1452 0 0.505408f
c19 1448 0 30.3744f
c20 1447 0 1.93836f
c21 1445 0 63.2455f
c22 1443 0 1.61686f
c23 1394 0 51.1638f
c24 1384 0 0.597515f
c25 1383 0 1.41036f
c26 1380 0 3.00492f
c27 1373 0 2.50685f
c28 1361 0 0.153591f
c29 1353 0 0.331843f
c30 1349 0 0.149617f
c31 1343 0 0.234896f
c32 1333 0 0.619196f
c33 1329 0 0.199778f
c34 1325 0 0.616262f
c35 1323 0 0.184291f
c36 1318 0 2.04707f
c37 1315 0 0.461876f
c38 1309 0 2.42667f
c39 1302 0 0.698089f
c40 1300 0 1.17018f
c41 1299 0 0.0920923f
c42 1263 0 9.76182f
c43 1079 0 0.337031f
c44 1077 0 10.7075f
c45 1055 0 0.458636f
c46 1023 0 4.04218f
c47 1019 0 0.273365f
c48 1017 0 0.27892f
c49 1011 0 0.00605517f
c50 1009 0 8.39124f
c51 1008 0 3.32603f
c52 1003 0 0.912107f
c53 1000 0 0.0193183f
c54 998 0 0.0208492f
c55 997 0 5.66331f
c56 996 0 3.34883f
c57 995 0 0.0349764f
c58 993 0 0.20801f
c59 983 0 0.0969917f
c60 980 0 0.0596675f
c61 979 0 3.19619f
c62 978 0 1.09777f
c63 973 0 1.43984f
c64 970 0 0.451293f
c65 966 0 1.37485f
c66 950 0 0.337987f
c67 947 0 0.671143f
c68 941 0 0.0312289f
c69 940 0 0.966787f
c70 930 0 1.42069f
c71 817 0 7.08798f
c72 809 0 7.25718f
c73 797 0 0.00989968f
c74 790 0 0.00989968f
c75 783 0 0.00989968f
c76 776 0 0.00989968f
c77 769 0 0.0234213f
c78 762 0 0.00828265f
c79 729 0 12.0272f
c80 727 0 19.5237f
c81 725 0 19.7073f
c82 723 0 19.7342f
c83 721 0 19.7073f
c84 719 0 19.7068f
c85 717 0 11.8043f
c86 691 0 0.114758f
c87 690 0 6.34215f
c88 687 0 0.103657f
c89 686 0 6.28446f
c90 17 0 0.486838f
c91 16 0 6.73982f
c92 7 0 0.152029f
c93 6 0 6.75738f
r94 1615 1618 0.00394881 
r95 1612 1613 0.956244 
r96 1605 1606 0.279231 
r97 1603 1605 0.266538 
r98 1596 1597 0.273962 
r99 1594 1596 0.261509 
r100 1583 1584 0.312462 
r101 1582 1583 0.0205664 
r102 1581 1582 0.0205664 
r103 1580 1581 0.0263617 
r104 1579 1580 0.035817 
r105 1578 1579 0.0124619 
r106 1577 1578 0.0360784 
r107 1576 1577 0.0354684 
r108 1575 1576 0.013159 
r109 1574 1575 0.0256209 
r110 1573 1574 0.0183007 
r111 1567 1586 0.00304139 
r112 1584 1567 0.00174292 
r113 1565 1567 0.461538 
r114 1525 1526 1.92387 
r115 1524 1525 9.48258 
r116 1521 1583 0.6 
r117 1518 1521 0.4475 
r118 1515 1582 0.6 
r119 1512 1515 1.6625 
r120 1509 1581 0.6 
r121 1506 1509 1.6625 
r122 1503 1580 0.666667 
r123 1500 1503 0.365 
r124 1497 1579 0.545455 
r125 1494 1497 1.4825 
r126 1491 1578 0.545455 
r127 1488 1491 1.63 
r128 1485 1577 0.75 
r129 1482 1485 0.1575 
r130 1479 1576 0.75 
r131 1476 1479 1.1525 
r132 1473 1575 0.5 
r133 1470 1473 1.455 
r134 1469 1573 0.00174292 
r135 1569 1469 0.00305011 
r136 1467 1469 0.461538 
r137 1463 1612 0.2 
r138 1459 1620 0.0039415 
r139 1618 1459 0.467422 
r140 1457 1459 0.5 
r141 1455 1457 0.181 
r142 1452 1455 0.17 
r143 1452 1584 1.5 
r144 1449 1450 0.5433 
r145 1448 1449 0.2247 
r146 1447 1463 0.0528252 
r147 1447 1450 0.099 
r148 1613 1443 0.698216 
r149 1441 1443 0.2 
r150 1441 1445 0.0136564 
r151 1606 1440 0.279231 
r152 1440 1438 0.279231 
r153 1438 1436 0.279231 
r154 1436 1434 0.266538 
r155 1432 1434 1.5 
r156 1432 1436 1.5 
r157 1432 1438 1.5 
r158 1432 1440 1.5 
r159 1432 1441 0.0314855 
r160 1431 1432 0.0601494 
r161 1597 1430 0.273962 
r162 1430 1428 0.273962 
r163 1428 1426 0.273962 
r164 1426 1424 0.261509 
r165 1422 1424 1.5 
r166 1422 1426 1.5 
r167 1422 1428 1.5 
r168 1422 1430 1.5 
r169 1422 1431 0.0634357 
r170 1591 1421 0.000747664 
r171 1419 1421 0.2 
r172 1419 1422 0.0334274 
r173 1416 1419 0.01361 
r174 1410 1605 1.5 
r175 1410 1603 1.5 
r176 1410 1606 1.5 
r177 1408 1410 0.0694058 
r178 1402 1596 1.5 
r179 1402 1594 1.5 
r180 1402 1408 0.0805639 
r181 1402 1597 1.5 
r182 1398 1589 0.2 
r183 1398 1402 0.0404834 
r184 1395 1398 0.0165962 
r185 1394 1463 0.0245381 
r186 1394 1410 0.0330312 
r187 1391 1618 0.5 
r188 1388 1391 0.181 
r189 1384 1573 1.5 
r190 1384 1388 0.17 
r191 1383 1448 0.5293 
r192 1355 1358 3 
r193 1531 1355 0.0677429 
r194 1353 1355 3 
r195 1531 1345 0.1116 
r196 1562 1345 0.0028 
r197 1343 1345 6 
r198 1321 1323 6 
r199 1318 1321 3.19226 
r200 1318 1525 6 
r201 1361 1315 0.535714 
r202 1302 1301 0.114485 
r203 1301 1323 0.221935 
r204 1299 1524 1.86065 
r205 1299 1300 0.0324243 
r206 1263 1562 0.2648 
r207 1262 1562 0.2664 
r208 1261 1562 0.2664 
r209 1526 1077 1.03355 
r210 1077 1333 1.2 
r211 1073 1079 1 
r212 1070 1349 3 
r213 1067 1070 0.2885 
r214 1067 1329 2 
r215 1312 1059 6 
r216 1059 1060 2.649 
r217 1343 1038 0.000149533 
r218 1383 1037 0.0555566 
r219 1037 1038 6 
r220 1036 1358 0.0444444 
r221 1353 1036 7.40741e-05 
r222 1383 1035 0.0279474 
r223 1035 1036 1.5 
r224 1329 1034 0.000233918 
r225 1449 1034 2 
r226 1333 1032 0.000114123 
r227 1448 1032 1.2 
r228 1079 1030 0.000100503 
r229 1450 1030 1 
r230 1349 1028 0.000299625 
r231 1449 1028 3 
r232 1361 1024 0.0757143 
r233 1024 1524 3 
r234 1325 1023 6 
r235 1325 1020 0.804286 
r236 1020 1526 6 
r237 1315 1019 3 
r238 1309 1017 6 
r239 1012 1312 2.81125 
r240 1309 1012 0.58375 
r241 1012 1300 6 
r242 1011 1055 0.0484211 
r243 1574 1011 2 
r244 1009 1073 0.219259 
r245 1008 1070 0.0845 
r246 1007 1023 5.04429 
r247 1001 1003 0.605623 
r248 999 1067 1.917 
r249 999 1000 0.0149881 
r250 997 1060 0.4775 
r251 997 998 0.013668 
r252 995 1019 0.208571 
r253 995 996 0.0418574 
r254 991 1017 0.175 
r255 990 993 0.1525 
r256 990 991 0.02 
r257 983 1059 0.563 
r258 982 1565 0.526 
r259 982 1009 0.0447005 
r260 981 1565 2.122 
r261 981 1008 0.0446983 
r262 979 1007 0.0446983 
r263 979 980 3.31857 
r264 1001 978 0.584127 
r265 977 980 0.0446983 
r266 977 978 1.02286 
r267 972 1000 0.0313149 
r268 972 973 1.51 
r269 971 998 0.013668 
r270 970 1000 0.0149881 
r271 970 971 0.2995 
r272 965 998 0.0337919 
r273 965 966 1.64138 
r274 1003 961 1.36714 
r275 947 950 0.81913 
r276 946 950 0.309565 
r277 940 946 0.0446983 
r278 940 941 2.21913 
r279 938 941 0.0447246 
r280 938 996 4.17333 
r281 929 993 0.02 
r282 929 930 1.3925 
r283 923 1467 2.122 
r284 923 983 0.0446983 
r285 950 873 5.56667 
r286 947 869 5.56667 
r287 863 1055 5.54444 
r288 820 817 0.159252 
r289 817 827 0.159252 
r290 809 817 0.159252 
r291 1591 758 0.2 
r292 817 758 0.0391734 
r293 741 817 0.0397569 
r294 731 820 0.0829907 
r295 817 731 0.0291589 
r296 1613 731 0.1 
r297 762 729 0.793846 
r298 1603 729 1.5 
r299 769 727 0.55145 
r300 1605 727 1.5 
r301 776 725 0.55145 
r302 1606 725 1.5 
r303 783 723 0.55145 
r304 1440 723 1.5 
r305 790 721 0.55145 
r306 1438 721 1.5 
r307 797 719 0.55145 
r308 1436 719 1.5 
r309 804 717 0.793846 
r310 1434 717 1.5 
r311 715 762 0.842637 
r312 1594 715 1.5 
r313 713 769 0.585344 
r314 1596 713 1.5 
r315 711 776 0.585344 
r316 1597 711 1.5 
r317 709 783 0.585344 
r318 1430 709 1.5 
r319 707 790 0.585344 
r320 1428 707 1.5 
r321 705 797 0.585344 
r322 1426 705 1.5 
r323 703 804 0.842637 
r324 1424 703 1.5 
r325 698 1591 1.79477 
r326 1589 698 0.000373832 
r327 698 741 0.2 
r328 697 827 0.73271 
r329 696 809 0.737944 
r330 695 817 0.73271 
r331 694 817 0.737944 
r332 691 695 0.0451326 
r333 691 817 2.504 
r334 690 697 0.0451326 
r335 690 817 2.44889 
r336 687 694 0.045921 
r337 687 817 2.687 
r338 686 696 0.045921 
r339 686 817 2.885 
r340 324 1380 0.0526456 
r341 1376 324 0.0552365 
r342 1431 324 0.00227273 
r343 322 1373 0.0620926 
r344 1369 322 0.0688218 
r345 1408 322 0.0025 
r346 17 1562 1.51848 
r347 16 1263 0.0447329 
r348 16 1562 1.51162 
r349 15 1355 0.0737243 
r350 15 17 0.0447329 
r351 1262 7 0.0447329 
r352 7 1562 1.51848 
r353 6 1261 0.0447329 
r354 6 1562 1.51162 
.ends

.subckt PM_PT3T03U%net_m69_VSSO_res 9 27
c0 28 0 1.50997f
c1 21 0 0.316587f
r2 27 28 4.221 
r3 28 21 0.0567742 
r4 21 9 5.56667 
.ends

.subckt PM_PT3T03U%VSS 759 799 821 846 851 863 865 870
c0 870 0 91.8256f
c1 863 0 56.3132f
c2 849 0 2.37405f
c3 846 0 0.00368951f
c4 843 0 1.24098f
c5 829 0 16.602f
c6 817 0 1.88726f
c7 810 0 16.9844f
c8 796 0 1.45963f
c9 773 0 24.8375f
c10 771 0 0.0842555f
c11 770 0 10.3881f
c12 769 0 0.0657505f
c13 768 0 7.73292f
c14 766 0 0.184939f
c15 763 0 0.0372194f
c16 759 0 4.21717f
c17 756 0 0.144425f
c18 754 0 0.578419f
c19 747 0 8.75359f
c20 745 0 0.194283f
c21 744 0 0.100669f
c22 743 0 1.98794f
c23 620 0 2.22371f
c24 616 0 2.49386f
c25 612 0 1.36882f
c26 610 0 0.27903f
c27 608 0 0.276497f
c28 605 0 26.7791f
c29 599 0 0.816164f
c30 598 0 6.34069f
c31 592 0 2.03915f
c32 586 0 0.137389f
c33 585 0 2.49119f
c34 584 0 0.154374f
c35 583 0 2.25701f
c36 539 0 0.162892f
c37 537 0 0.72248f
c38 535 0 0.203897f
c39 510 0 2.94295f
c40 496 0 3.05881f
c41 494 0 0.031054f
c42 491 0 0.571035f
c43 490 0 6.9112f
c44 489 0 0.161087f
c45 474 0 3.7501f
c46 471 0 2.96224f
r47 865 868 0.000703354 
r48 861 863 0.00318245 
r49 860 861 0.00119641 
r50 859 860 0.0758524 
r51 858 859 0.0344168 
r52 857 858 0.167059 
r53 856 857 0.128574 
r54 855 856 0.0141176 
r55 854 855 0.089651 
r56 851 854 0.00438684 
r57 849 861 0.461538 
r58 843 846 1.28857 
r59 843 859 1.5 
r60 837 857 0.0535714 
r61 824 860 0.428571 
r62 821 824 0.189 
r63 819 870 0.000702051 
r64 868 819 0.0832563 
r65 817 819 0.131579 
r66 817 821 0.013 
r67 814 815 0.56934 
r68 813 814 1.12447 
r69 810 813 0.628223 
r70 810 858 0.3 
r71 802 854 0.428571 
r72 799 802 0.189 
r73 796 799 0.013 
r74 796 868 0.131579 
r75 770 771 0.0338756 
r76 768 837 2.8715 
r77 768 769 0.0338756 
r78 762 771 0.0338756 
r79 761 769 0.0338756 
r80 759 841 2.59036 
r81 839 759 1.07807 
r82 829 759 1.552 
r83 758 771 0.00880368 
r84 758 759 0.958 
r85 757 769 0.00880368 
r86 757 759 0.986 
r87 766 756 0.0632911 
r88 756 754 0.0574488 
r89 753 763 0.0448201 
r90 750 849 1.518 
r91 749 849 0.426 
r92 747 841 1.08482 
r93 745 839 1.06072 
r94 744 829 1.5515 
r95 743 744 0.0448201 
r96 743 753 2.13041 
r97 770 622 0.733 
r98 759 622 1.93 
r99 620 783 3 
r100 617 837 1.612 
r101 763 617 1.283 
r102 617 856 1.5 
r103 839 616 1 
r104 783 612 0.24 
r105 814 612 1.5 
r106 622 610 3 
r107 813 610 3 
r108 608 841 3 
r109 815 608 3 
r110 605 807 1.1314 
r111 605 855 0.125 
r112 604 616 0.0075 
r113 625 604 0.056 
r114 807 604 0.24 
r115 602 766 0.0155975 
r116 773 602 1 
r117 600 773 0.9662 
r118 600 625 0.02 
r119 599 762 0.5005 
r120 750 599 0.0446983 
r121 598 761 0.5005 
r122 749 598 0.0446983 
r123 597 620 0.830244 
r124 596 620 0.573659 
r125 591 592 1.37048 
r126 586 597 0.0448242 
r127 586 587 0.678222 
r128 585 592 0.0447675 
r129 585 587 0.650667 
r130 584 596 0.0446983 
r131 583 591 0.0447067 
r132 583 584 1.45854 
r133 538 539 0.147619 
r134 534 535 0.14988 
r135 747 534 0.0380723 
r136 531 533 0.143333 
r137 745 530 0.0385542 
r138 528 530 0.14506 
r139 759 527 0.159 
r140 510 759 0.159 
r141 509 539 0.02 
r142 509 527 1.247 
r143 508 535 0.02 
r144 508 510 1.243 
r145 759 507 0.192 
r146 505 759 0.192 
r147 504 505 0.342 
r148 759 504 0.192 
r149 502 759 0.192 
r150 501 502 0.342 
r151 759 501 0.192 
r152 499 759 0.192 
r153 498 499 0.342 
r154 759 498 0.192 
r155 496 759 0.192 
r156 495 538 0.02 
r157 495 507 1.214 
r158 494 537 0.04 
r159 494 496 0.243 
r160 492 534 0.02 
r161 492 537 0.938734 
r162 602 491 0.102486 
r163 490 538 0.0380952 
r164 490 491 4.80524 
r165 489 754 0.555238 
r166 489 533 0.0380952 
r167 759 485 0.159 
r168 483 759 0.159 
r169 482 483 0.408 
r170 759 482 0.159 
r171 480 759 0.159 
r172 479 480 0.408 
r173 759 479 0.159 
r174 477 759 0.159 
r175 476 477 0.408 
r176 759 476 0.159 
r177 474 759 0.159 
r178 473 533 0.02 
r179 473 485 1.247 
r180 472 530 0.02 
r181 472 474 1.243 
r182 471 531 0.02 
r183 470 528 0.02 
r184 470 471 4.69271 
.ends

.subckt PM_PT3T03U%U29_U42_r1 53 58 66
c0 135 0 0.252886f
c1 131 0 0.130993f
c2 125 0 2.82662f
c3 116 0 0.432351f
c4 110 0 0.304369f
c5 108 0 0.379151f
c6 106 0 0.0792102f
c7 105 0 0.329567f
c8 102 0 6.54958f
c9 99 0 0.181486f
c10 98 0 9.1289f
c11 97 0 0.629329f
c12 96 0 0.299845f
c13 93 0 0.136486f
c14 87 0 0.0903556f
c15 79 0 0.171215f
c16 73 0 0.678581f
c17 67 0 0.305615f
c18 66 0 0.278026f
c19 61 0 0.163718f
c20 60 0 0.550917f
c21 58 0 3.10095f
c22 53 0 3.10208f
r23 115 135 0.00341463 
r24 113 115 3 
r25 113 116 0.017 
r26 111 113 0.0283 
r27 109 116 0.02 
r28 109 110 0.662857 
r29 108 111 0.02 
r30 107 108 0.102305 
r31 105 110 0.0446983 
r32 105 106 0.352857 
r33 102 131 6 
r34 100 106 0.0448488 
r35 100 102 6.78194 
r36 98 107 0.064391 
r37 98 99 10.818 
r38 97 99 0.0661591 
r39 127 96 0.0521951 
r40 95 97 0.11639 
r41 95 96 3 
r42 91 131 0.130323 
r43 90 93 0.153548 
r44 90 91 0.02 
r45 87 125 6 
r46 85 93 0.02 
r47 85 87 0.132903 
r48 84 125 3.99613 
r49 83 84 0.026898 
r50 79 83 0.10143 
r51 79 66 0.106667 
r52 61 73 1.85294 
r53 60 67 1.85294 
r54 55 61 3.88985 
r55 55 58 183.96 
r56 50 60 3.88985 
r57 50 53 183.96 
r58 73 27 0.00142683 
r59 135 27 3 
r60 67 9 0.00142683 
r61 127 9 3 
.ends

.subckt PM_PT3T03U%VSSO 350 356 360 421 663 882 886 893 922 929 941 955 957 962
+ 965 969 976 982 986 990 997 1003 1007 1014 1020 1024 1031 1037 1041 1048 1056
+ 1068 1106 1112 1116 1122
c0 1122 0 31.9066f
c1 1109 0 1.98471f
c2 1106 0 8.77934f
c3 1100 0 7.93913f
c4 1098 0 6.95922f
c5 1093 0 6.95977f
c6 1088 0 6.96055f
c7 1083 0 6.96135f
c8 1078 0 6.96246f
c9 1068 0 0.00201521f
c10 1063 0 8.95235f
c11 1056 0 0.342408f
c12 1041 0 1.36597f
c13 1037 0 1.40025f
c14 1024 0 1.35721f
c15 1020 0 1.35737f
c16 1007 0 2.01154f
c17 1003 0 1.61252f
c18 990 0 0.968621f
c19 986 0 0.84021f
c20 982 0 1.38502f
c21 969 0 2.02569f
c22 965 0 1.55543f
c23 962 0 1.69059f
c24 960 0 0.237135f
c25 957 0 0.00103378f
c26 955 0 8.25608e-19
c27 953 0 8.96457f
c28 939 0 7.86103f
c29 935 0 1.27875f
c30 925 0 1.65707f
c31 922 0 58.2594f
c32 889 0 1.34161f
c33 886 0 10.6383f
c34 879 0 0.322777f
c35 876 0 0.28954f
c36 872 0 0.300276f
c37 864 0 0.115216f
c38 858 0 0.394022f
c39 856 0 0.489289f
c40 854 0 1.61153f
c41 852 0 0.423626f
c42 849 0 4.90384f
c43 846 0 0.112261f
c44 845 0 0.0401513f
c45 844 0 1.55614f
c46 842 0 0.0510217f
c47 841 0 0.328516f
c48 802 0 37.0537f
c49 801 0 0.651344f
c50 795 0 0.572684f
c51 791 0 0.708327f
c52 788 0 0.0415494f
c53 787 0 3.2491f
c54 785 0 0.383003f
c55 784 0 0.713156f
c56 783 0 0.303464f
c57 782 0 3.2754f
c58 781 0 0.383249f
c59 778 0 0.616598f
c60 776 0 0.100418f
c61 775 0 1.22549f
c62 774 0 2.10295f
c63 772 0 0.0503886f
c64 771 0 0.19079f
c65 770 0 0.343029f
c66 737 0 0.122915f
c67 736 0 8.88886f
c68 703 0 0.264591f
c69 699 0 7.03694f
c70 695 0 0.146306f
c71 488 0 0.593769f
c72 471 0 1.09054f
c73 469 0 0.102291f
c74 467 0 0.0361692f
c75 465 0 1.6764f
c76 464 0 0.0407892f
c77 463 0 0.346472f
c78 450 0 0.889314f
c79 449 0 0.117657f
c80 446 0 0.539718f
c81 442 0 0.0481945f
c82 441 0 0.43737f
c83 421 0 0.114597f
c84 414 0 0.121644f
c85 320 0 5.72769f
c86 287 0 14.0332f
c87 237 0 14.0334f
c88 187 0 14.0339f
c89 137 0 14.0355f
c90 87 0 14.0371f
c91 10 0 0.146306f
r92 1120 1122 0.00282778 
r93 1119 1120 0.355444 
r94 1116 1119 0.00283333 
r95 1111 1113 0.0106667 
r96 1111 1112 0.02 
r97 1109 1111 0.0143333 
r98 1072 1073 0.0140639 
r99 1067 1068 0.0126606 
r100 1100 1065 0.0113761 
r101 1063 1065 0.0638298 
r102 1060 1104 2 
r103 1056 1060 0.000380952 
r104 955 1067 0.013211 
r105 1063 955 0.000917431 
r106 953 955 0.000913242 
r107 953 1072 0.0638298 
r108 940 941 0.02 
r109 939 1072 0.0113242 
r110 937 939 0.0327869 
r111 937 940 0.0166784 
r112 935 937 0.029258 
r113 932 1120 0.357143 
r114 929 932 0.21 
r115 927 1106 0.00544385 
r116 1104 927 0.0345455 
r117 925 927 1 
r118 925 929 0.445 
r119 920 922 0.00612761 
r120 920 1100 0.0327869 
r121 1048 918 0.130435 
r122 918 1098 0.00301741 
r123 1095 918 0.00301741 
r124 916 918 0.0266667 
r125 916 920 0.0287785 
r126 1031 915 0.130435 
r127 915 1093 0.00301741 
r128 1090 915 0.00301741 
r129 913 915 0.0266667 
r130 913 916 0.0242129 
r131 1014 912 0.130435 
r132 912 1088 0.00301741 
r133 1085 912 0.00301741 
r134 910 912 0.0266667 
r135 910 913 0.0242129 
r136 909 910 0.000615582 
r137 997 908 0.130435 
r138 908 1083 0.00301741 
r139 1080 908 0.00301741 
r140 906 908 0.0266667 
r141 906 909 0.0235973 
r142 976 905 0.130435 
r143 905 1078 0.00301741 
r144 1075 905 0.00301741 
r145 903 905 0.0266667 
r146 903 906 0.0242129 
r147 902 935 0.02 
r148 902 903 0.0277012 
r149 940 899 0.429445 
r150 896 1119 0.357143 
r151 893 896 0.21 
r152 891 1115 0.144409 
r153 1113 891 0.034 
r154 889 891 1 
r155 889 893 0.445 
r156 878 1104 0.0937968 
r157 878 879 0.00274999 
r158 874 876 0.0758209 
r159 870 872 0.0758209 
r160 867 960 3 
r161 864 867 0.0536842 
r162 856 858 6 
r163 855 876 0.02 
r164 855 856 0.366154 
r165 854 872 0.02 
r166 853 879 0.0757123 
r167 853 854 1.54308 
r168 852 874 0.02 
r169 851 870 0.02 
r170 851 852 0.37 
r171 848 864 0.02 
r172 848 849 6.35789 
r173 845 846 0.1275 
r174 844 845 0.0448391 
r175 843 844 2.75862 
r176 841 843 0.044715 
r177 841 842 0.466667 
r178 1041 840 0.285 
r179 838 840 0.6 
r180 1037 837 0.32 
r181 835 837 0.6 
r182 835 838 0.0396791 
r183 1024 834 0.36 
r184 832 834 0.6 
r185 832 835 0.043262 
r186 1020 831 0.37 
r187 829 831 0.6 
r188 829 832 0.0347594 
r189 828 829 0.0198396 
r190 1007 827 0.9975 
r191 825 827 0.6 
r192 825 828 0.0672192 
r193 1003 824 0.995 
r194 822 824 0.6 
r195 822 825 0.0253476 
r196 990 821 0.3425 
r197 819 821 0.6 
r198 819 822 0.0359893 
r199 986 818 0.04 
r200 816 818 0.75 
r201 816 819 0.0374332 
r202 982 815 0.365 
r203 813 815 0.6 
r204 813 816 0.0226738 
r205 969 812 0.194286 
r206 810 812 0.6 
r207 810 813 0.0233155 
r208 965 809 0.3175 
r209 807 809 0.6 
r210 807 810 0.0203209 
r211 962 806 0.96 
r212 804 806 0.666667 
r213 804 807 0.0213904 
r214 803 1109 0.02 
r215 803 804 0.0720856 
r216 802 879 0.00274999 
r217 802 838 0.0668449 
r218 801 842 0.0450432 
r219 1115 801 1.29371 
r220 795 864 0.02 
r221 795 796 0.746316 
r222 793 1068 0.230275 
r223 791 1063 0.210275 
r224 790 858 0.233846 
r225 788 960 0.109474 
r226 786 957 0.229041 
r227 786 787 0.0863581 
r228 784 953 0.209132 
r229 784 785 0.0863581 
r230 793 782 0.0861375 
r231 782 783 0.132033 
r232 791 781 0.0861375 
r233 777 778 0.4 
r234 776 790 0.0456946 
r235 775 777 0.0446983 
r236 775 776 1.626 
r237 788 774 0.0420103 
r238 773 774 3.01467 
r239 771 773 0.0446983 
r240 771 772 0.289333 
r241 770 772 0.0447588 
r242 737 955 0.128 
r243 736 783 0.0473573 
r244 736 955 0.126 
r245 703 737 0.0473573 
r246 787 703 0.132033 
r247 699 955 0.126 
r248 698 962 1.1475 
r249 696 955 0.128 
r250 695 696 0.0473573 
r251 695 785 0.250407 
r252 778 663 5.56667 
r253 849 473 6 
r254 828 471 0.75 
r255 846 469 3 
r256 467 488 0.0494737 
r257 796 467 2 
r258 464 471 0.437895 
r259 464 465 0.0407126 
r260 698 463 0.0338756 
r261 449 473 0.0413535 
r262 449 450 1.14783 
r263 445 446 0.221176 
r264 441 445 0.0446983 
r265 441 442 0.608235 
r266 439 442 0.0446983 
r267 439 465 2.01647 
r268 420 463 0.00880368 
r269 420 421 0.1375 
r270 414 770 0.6025 
r271 414 469 0.0265396 
r272 450 360 5.56667 
r273 446 356 5.56667 
r274 350 488 5.54444 
r275 323 886 0.0419737 
r276 882 323 0.0413851 
r277 909 323 0.00128205 
r278 899 320 2.21804 
r279 320 1113 0.6 
r280 1048 287 0.00313778 
r281 1098 287 0.0652174 
r282 1065 276 0.0141284 
r283 276 1067 0.0652174 
r284 1031 237 0.00313778 
r285 1093 237 0.0652174 
r286 227 1048 0.00313778 
r287 1095 227 0.0652174 
r288 1014 187 0.00313778 
r289 1088 187 0.0652174 
r290 177 1031 0.00313778 
r291 1090 177 0.0652174 
r292 997 137 0.00313778 
r293 1083 137 0.0652174 
r294 127 1014 0.00313778 
r295 1085 127 0.0652174 
r296 976 87 0.00313778 
r297 1078 87 0.0652174 
r298 77 997 0.00313778 
r299 1080 77 0.0652174 
r300 37 957 0.0126027 
r301 955 37 0.0131507 
r302 1073 37 0.0652174 
r303 27 976 0.00313778 
r304 1075 27 0.0652174 
r305 10 781 0.250407 
r306 10 699 0.0473573 
.ends

.subckt PM_PT3T03U%U30_ngate 106 115 122 129 136 173 175 193 235 240 245 251
c0 325 0 0.445926f
c1 317 0 16.5457f
c2 310 0 0.533624f
c3 303 0 1.13758f
c4 300 0 1.4773f
c5 296 0 1.11687f
c6 295 0 1.16894f
c7 294 0 0.0674234f
c8 291 0 0.211175f
c9 289 0 5.47037f
c10 285 0 0.137403f
c11 279 0 0.719773f
c12 274 0 2.99555f
c13 258 0 0.533624f
c14 255 0 0.606155f
c15 254 0 0.166949f
c16 253 0 0.606155f
c17 252 0 0.166892f
c18 251 0 3.04886f
c19 245 0 3.04886f
c20 240 0 3.04886f
c21 235 0 3.04886f
c22 193 0 1.96078f
c23 183 0 0.432413f
c24 175 0 0.595958f
c25 173 0 0.831149f
c26 170 0 0.149707f
c27 167 0 0.145613f
c28 158 0 1.99646f
c29 155 0 2.78887f
c30 148 0 3.13562f
c31 146 0 0.0325297f
c32 143 0 0.0261329f
c33 136 0 1.05413f
c34 134 0 0.0760973f
c35 133 0 0.411599f
c36 129 0 1.33816f
c37 126 0 0.362266f
c38 122 0 1.34432f
c39 120 0 0.0712321f
c40 119 0 0.246444f
c41 115 0 1.46684f
c42 113 0 0.677983f
c43 111 0 0.0621076f
c44 110 0 0.332588f
c45 106 0 2.04929f
c46 62 0 0.449025f
r47 316 317 6.66267 
r48 313 316 1.85067 
r49 303 306 0.0665098 
r50 303 329 1.5 
r51 299 325 0.00536585 
r52 322 299 0.0502439 
r53 297 299 1.5 
r54 297 300 0.122734 
r55 297 296 0.109057 
r56 295 306 0.02 
r57 295 296 1.378 
r58 300 294 1.7 
r59 313 291 6 
r60 289 291 6 
r61 288 294 0.0450816 
r62 288 289 7.68471 
r63 285 283 0.0545192 
r64 279 282 0.0447588 
r65 279 280 0.876 
r66 310 271 0.00142683 
r67 268 310 0.0277856 
r68 255 310 5.05882 
r69 254 310 5.05882 
r70 253 258 5.05882 
r71 252 258 5.05882 
r72 247 255 3.88985 
r73 247 251 183.96 
r74 242 254 3.88985 
r75 242 245 183.96 
r76 237 253 3.88985 
r77 237 240 183.96 
r78 232 252 3.88985 
r79 232 235 183.96 
r80 170 175 60 
r81 170 190 3.77986 
r82 167 173 85 
r83 167 183 3.53757 
r84 285 158 6 
r85 283 155 2.2175 
r86 282 155 1.515 
r87 155 317 6 
r88 193 154 1.505 
r89 280 154 6 
r90 183 152 0.3325 
r91 274 152 6 
r92 149 277 2.2825 
r93 274 149 1.32 
r94 149 316 6 
r95 148 190 3.7825 
r96 277 148 6 
r97 145 158 3.105 
r98 145 146 0.0329896 
r99 144 193 1.3075 
r100 140 142 0.06125 
r101 135 146 0.0329896 
r102 135 136 1.2375 
r103 133 146 0.00955498 
r104 133 134 0.526452 
r105 128 134 0.044713 
r106 128 129 1.2375 
r107 127 143 0.0338756 
r108 126 144 0.0446983 
r109 126 127 0.51 
r110 121 143 0.00880368 
r111 121 122 1.3075 
r112 120 142 0.04 
r113 119 143 0.0338756 
r114 119 120 0.4325 
r115 114 142 0.02 
r116 114 115 1.4425 
r117 113 140 0.02 
r118 112 113 1.08375 
r119 110 112 0.0450043 
r120 110 111 0.388108 
r121 105 111 0.0450043 
r122 105 106 1.93125 
r123 329 62 0.00292683 
r124 62 271 3 
r125 258 38 0.00142683 
r126 325 38 3 
r127 26 329 0.0526829 
r128 26 268 3 
r129 258 9 0.0277856 
r130 322 9 3 
.ends

.subckt PM_PT3T03U%U17_ngate2 90 100 105 112 179 184 189 195
c0 262 0 0.436412f
c1 253 0 0.533727f
c2 250 0 0.298875f
c3 249 0 1.14959f
c4 245 0 1.4886f
c5 244 0 1.14544f
c6 241 0 0.0625815f
c7 240 0 4.78597f
c8 236 0 4.16424f
c9 234 0 0.639802f
c10 224 0 0.140349f