* File: pc3t03d.dist.sp.pex
* Created: Sun Jul  4 12:47:09 2010
* Program "Calibre xRC"
* Version "v2008.4_19.14"
* Nominal Temperature: 27C
* Circuit Temperature: 27C
* 
.subckt PM_PC3T03D%PAD 21 50 79 108 137 166 218 242 266 290 320 326 389 428 452
+ 459
c0 467 0 29.556f
c1 460 0 83.073f
c2 459 0 64.3341f
c3 456 0 159.215f
c4 451 0 0.991473f
c5 444 0 9.95297f
c6 434 0 14.4468f
c7 425 0 0.117887f
c8 423 0 213.183f
c9 408 0 15.3329f
c10 397 0 46.9214f
c11 392 0 65.4578f
c12 390 0 15.8892f
c13 389 0 1.04872f
c14 388 0 3.87627f
c15 326 0 13.3722f
c16 320 0 13.3637f
c17 290 0 13.36f
c18 266 0 13.3725f
c19 242 0 13.6428f
c20 218 0 13.3618f
c21 176 0 7.52869f
c22 166 0 2.98552f
c23 149 0 6.78371f
c24 137 0 2.98621f
c25 120 0 6.78371f
c26 108 0 2.98621f
c27 91 0 6.78371f
c28 79 0 2.9856f
c29 62 0 6.78371f
c30 50 0 2.9856f
c31 33 0 6.78371f
c32 21 0 2.98547f
c33 4 0 6.78371f
r34 467 468 0.118407 
r35 466 467 0.118407 
r36 465 466 0.056883 
r37 464 465 0.061524 
r38 463 464 0.118407 
r39 462 463 0.0830354 
r40 461 462 0.0353716 
r41 459 460 0.0124825 
r42 457 459 0.000593149 
r43 456 457 0.0669731 
r44 451 452 0.00916 
r45 444 462 0.0545455 
r46 434 465 0.015 
r47 425 428 0.00916 
r48 425 451 2 
r49 423 434 0.0264274 
r50 421 423 0.147454 
r51 421 422 0.0288462 
r52 415 416 0.00752787 
r53 414 415 0.021023 
r54 412 414 0.000537705 
r55 412 456 0.00162999 
r56 410 412 0.000537705 
r57 408 410 0.0285508 
r58 399 451 0.1388 
r59 398 399 0.132996 
r60 397 398 0.0171733 
r61 394 395 0.0171733 
r62 393 394 0.0171733 
r63 392 393 0.0171733 
r64 391 397 0.0142401 
r65 391 395 0.00293318 
r66 390 422 0.00646891 
r67 390 392 0.00818451 
r68 388 444 0.202116 
r69 388 389 0.0147368 
r70 315 320 0.0072093 
r71 392 315 0.0566038 
r72 313 326 0.0072093 
r73 398 313 0.0566038 
r74 286 290 0.0072093 
r75 397 286 0.0566038 
r76 262 266 0.0072093 
r77 395 262 0.0566038 
r78 238 242 0.0072093 
r79 394 238 0.0566038 
r80 214 218 0.0072093 
r81 393 214 0.0566038 
r82 194 197 0.0022831 
r83 416 194 0.0375475 
r84 194 457 0.00547945 
r85 414 193 0.00210084 
r86 191 193 0.000537705 
r87 410 191 0.00210084 
r88 193 182 0.0105115 
r89 415 182 0.00712251 
r90 178 197 0.0187738 
r91 182 178 0.00376393 
r92 416 178 0.00712251 
r93 176 191 0.0142754 
r94 408 176 0.00356125 
r95 460 173 0.345778 
r96 172 468 0.0220132 
r97 172 173 0.319822 
r98 166 153 0.00249413 
r99 173 153 0.0425532 
r100 149 166 0.00249413 
r101 173 149 0.0425532 
r102 460 144 0.345778 
r103 143 467 0.0220132 
r104 143 144 0.319822 
r105 137 124 0.00249413 
r106 144 124 0.0425532 
r107 120 137 0.00249413 
r108 144 120 0.0425532 
r109 460 115 0.345778 
r110 114 466 0.0220132 
r111 114 115 0.319822 
r112 108 95 0.00249413 
r113 115 95 0.0425532 
r114 91 108 0.00249413 
r115 115 91 0.0425532 
r116 460 86 0.345778 
r117 85 464 0.0220132 
r118 85 86 0.319822 
r119 79 66 0.00249413 
r120 86 66 0.0425532 
r121 62 79 0.00249413 
r122 86 62 0.0425532 
r123 460 57 0.345778 
r124 56 463 0.0220132 
r125 56 57 0.319822 
r126 50 37 0.00249413 
r127 57 37 0.0425532 
r128 33 50 0.00249413 
r129 57 33 0.0425532 
r130 460 28 0.345778 
r131 27 461 0.0220132 
r132 27 28 0.319822 
r133 21 8 0.00249413 
r134 28 8 0.0425532 
r135 4 21 0.00249413 
r136 28 4 0.0425532 
.ends

.subckt PM_PC3T03D%noxref_2 8 18
c0 20 0 4.82229f
c1 18 0 0.993329f
c2 8 0 6.70454f
r3 18 20 0.158105 
r4 20 8 0.158526 
.ends

.subckt PM_PC3T03D%net_m32_VSSO_res 43 68 75 80 87 121
c0 121 0 0.73297f
c1 117 0 0.842161f
c2 111 0 0.0545005f
c3 97 0 0.0628754f
c4 91 0 0.235924f
c5 87 0 0.519409f
c6 85 0 0.19588f
c7 84 0 0.135544f
c8 80 0 0.519409f
c9 75 0 0.519409f
c10 73 0 0.102851f
c11 72 0 0.162435f
c12 68 0 0.733874f
c13 43 0 0.565378f
c14 41 0 0.0478161f
c15 40 0 0.36684f
r16 112 117 0.0458824 
r17 111 112 0.02 
r18 110 111 0.124706 
r19 98 121 85 
r20 95 117 2.20253 
r21 94 96 6.2212 
r22 94 95 1.5553 
r23 93 94 10.0922 
r24 92 97 2.23066 
r25 91 98 3.37824 
r26 91 92 10.8571 
r27 86 97 0.93595 
r28 86 87 85 
r29 85 96 4.70046 
r30 84 97 2.23066 
r31 84 85 9 
r32 79 96 1.5553 
r33 79 80 85 
r34 74 93 1.5553 
r35 74 75 85 
r36 72 93 2.90323 
r37 72 73 10.8571 
r38 67 73 3.37824 
r39 67 68 85 
r40 42 43 0.18 
r41 110 41 0.0446983 
r42 40 42 0.0446983 
r43 40 41 0.521176 
.ends

.subckt PM_PC3T03D%U28_padr 40 44 52 118 120 122 164 172
c0 265 0 16.1707f
c1 259 0 9.28922f
c2 252 0 2.00216f
c3 248 0 15.9428f
c4 234 0 0.145078f
c5 233 0 0.0372956f
c6 232 0 0.0478417f
c7 231 0 0.0873247f
c8 228 0 6.60484f
c9 225 0 0.611623f
c10 224 0 0.170652f
c11 221 0 0.145869f
c12 217 0 5.63909f
c13 215 0 0.516633f
c14 213 0 0.0693973f
c15 212 0 0.207306f
c16 211 0 0.411447f
c17 207 0 0.726102f
c18 201 0 0.996455f
c19 195 0 2.02849f
c20 189 0 0.484333f
c21 177 0 0.420216f
c22 172 0 1.0679f
c23 171 0 0.703986f
c24 170 0 0.077275f
c25 169 0 0.489946f
c26 166 0 0.670402f
c27 164 0 5.5788e-21
c28 145 0 0.0984887f
c29 138 0 0.0817276f
c30 130 0 16.0857f
c31 122 0 1.05186f
c32 120 0 0.575335f
c33 118 0 1.02278f
c34 92 0 0.134724f
c35 88 0 0.430753f
c36 85 0 0.565389f
c37 84 0 0.372629f
c38 82 0 0.104433f
c39 79 0 1.7393f
c40 78 0 0.656638f
c41 75 0 0.393604f
c42 72 0 0.0454867f
c43 71 0 0.0323226f
c44 70 0 0.0875376f
c45 65 0 0.111772f
c46 62 0 0.0982054f
c47 58 0 0.31549f
c48 56 0 0.0685833f
c49 55 0 0.0982496f
c50 52 0 1.29706f
c51 49 0 0.0427005f
c52 48 0 0.377238f
c53 44 0 2.48299f
c54 40 0 1.54399f
r55 265 250 0.172857 
r56 248 250 6 
r57 244 246 3.96133 
r58 234 236 3 
r59 233 234 0.109474 
r60 233 231 0.0456991 
r61 231 232 0.147143 
r62 228 265 2 
r63 226 232 0.0446983 
r64 226 228 10.3129 
r65 225 236 0.30381 
r66 219 221 0.10375 
r67 259 217 0.185079 
r68 215 217 1.2 
r69 214 215 0.482857 
r70 212 214 0.0446983 
r71 212 213 0.125714 
r72 211 213 0.0446983 
r73 210 225 0.0446983 
r74 210 211 0.407619 
r75 207 252 6 
r76 205 224 0.15871 
r77 205 207 0.867097 
r78 203 248 1.784 
r79 246 203 9.232 
r80 201 203 6 
r81 224 201 1.56387 
r82 188 221 0.02 
r83 188 189 0.755 
r84 184 219 0.02 
r85 179 252 2.38452 
r86 171 259 0.18836 
r87 171 172 0.0147368 
r88 169 179 0.0446983 
r89 169 170 0.619355 
r90 166 170 0.0456388 
r91 165 177 0.0200258 
r92 165 166 0.791 
r93 164 177 0.00412903 
r94 129 130 1.07733 
r95 110 122 168.333 
r96 110 145 3.92502 
r97 105 120 51.6667 
r98 104 105 1.66667 
r99 97 118 168.333 
r100 138 97 3.6393 
r101 195 92 6 
r102 89 198 0.8025 
r103 195 89 2.8475 
r104 89 130 6 
r105 88 145 0.77 
r106 198 88 6 
r107 85 193 1.2525 
r108 85 246 6 
r109 84 138 0.7825 
r110 193 84 6 
r111 189 82 6 
r112 79 186 0.8 
r113 184 79 2.045 
r114 79 129 6 
r115 186 78 6 
r116 75 182 0.482667 
r117 75 244 6 
r118 74 129 3.08933 
r119 182 74 6 
r120 72 92 0.05 
r121 68 70 0.12 
r122 68 78 0.8825 
r123 66 82 0.04375 
r124 65 66 0.02 
r125 63 65 0.10375 
r126 62 72 0.0446983 
r127 61 71 0.0338756 
r128 61 62 0.1875 
r129 58 104 1.16667 
r130 57 71 0.0338756 
r131 57 58 0.245 
r132 55 71 0.00880368 
r133 55 56 0.25 
r134 51 56 0.0446983 
r135 51 52 1.2575 
r136 50 52 1.3775 
r137 48 50 0.0447588 
r138 48 49 0.544 
r139 70 44 2.375 
r140 39 63 0.02 
r141 39 40 1.40875 
r142 38 49 0.0447588 
r143 38 40 1.3775 
.ends

.subckt PM_PC3T03D%net_m70_VDDO_res 8 39
c0 39 0 2.13127f
c1 34 0 1.30085f
c2 18 0 0.0793577f
c3 15 0 0.165272f
c4 10 0 0.0679105f
c5 9 0 0.724221f
c6 8 0 0.358454f
c7 6 0 0.182946f
r8 36 39 3.87662 
r9 17 34 43.5 
r10 16 34 49.5 
r11 18 15 16.5 
r12 11 18 4.13452 
r13 10 16 3.35237 
r14 9 15 3.35237 
r15 9 10 56.025 
r16 11 8 6.95493 
r17 7 36 1.62175 
r18 7 8 5.625 
r19 6 17 3.35237 
r20 6 8 5.625 
.ends

.subckt PM_PC3T03D%VSSO 403 428 432 482 806 810 817 846 853 865 880 882 887 892
+ 898 907 913 919 925 934 940 946 955 961 967 976 982 988 995 1004 1010 1022 1075
+ 1081 1085 1091
c0 1091 0 32.0864f
c1 1078 0 1.99786f
c2 1075 0 46.9092f
c3 1054 0 7.93913f
c4 1052 0 6.95922f
c5 1047 0 6.95952f
c6 1042 0 6.96108f
c7 1037 0 6.99818f
c8 1032 0 6.99818f
c9 1022 0 0.00201521f
c10 1017 0 8.95235f
c11 1010 0 0.342408f
c12 995 0 0.340797f
c13 988 0 1.36597f
c14 982 0 1.40025f
c15 967 0 1.35721f
c16 961 0 1.35624f
c17 946 0 1.34294f
c18 940 0 1.16989f
c19 925 0 1.38145f
c20 919 0 0.838867f
c21 913 0 1.37456f
c22 898 0 1.32465f
c23 892 0 1.55524f
c24 887 0 1.69047f
c25 885 0 0.24116f
c26 882 0 0.00103378f
c27 880 0 8.25608e-19
c28 878 0 8.96457f
c29 863 0 7.86215f
c30 859 0 1.27875f
c31 849 0 1.65707f
c32 846 0 58.2588f
c33 813 0 1.34856f
c34 810 0 10.6383f
c35 798 0 0.115227f
c36 792 0 4.88155f
c37 789 0 0.112689f
c38 788 0 0.0401332f
c39 787 0 1.52711f
c40 785 0 0.0508991f
c41 784 0 0.32733f
c42 783 0 0.686341f
c43 779 0 0.519781f
c44 773 0 0.708327f
c45 771 0 0.0425963f
c46 770 0 3.25339f
c47 768 0 0.383003f
c48 767 0 0.713156f
c49 766 0 0.303464f
c50 765 0 3.2754f
c51 764 0 0.383249f
c52 763 0 2.14307f
c53 761 0 0.0561467f
c54 760 0 0.185287f
c55 759 0 0.343481f
c56 726 0 0.122915f
c57 725 0 8.89516f
c58 692 0 0.264591f
c59 688 0 7.03694f
c60 684 0 0.146306f
c61 482 0 0.60415f
c62 453 0 0.897859f
c63 451 0 0.102374f
c64 449 0 0.0452257f
c65 447 0 1.48101f
c66 446 0 0.031507f
c67 445 0 0.346454f
c68 432 0 0.765589f
c69 431 0 0.107288f
c70 428 0 0.561133f
c71 424 0 0.0481945f
c72 423 0 0.442737f
c73 403 0 0.114597f
c74 396 0 0.121681f
c75 317 0 7.04049f
c76 284 0 14.0332f
c77 234 0 14.0339f
c78 184 0 14.0358f
c79 134 0 14.0465f
c80 84 0 14.0465f
c81 10 0 0.146306f
r82 1089 1091 0.00282778 
r83 1088 1089 0.355444 
r84 1085 1088 0.00283333 
r85 1080 1082 0.0104918 
r86 1080 1081 0.02 
r87 1078 1080 0.0140984 
r88 1072 1073 0.127005 
r89 1071 1072 0.0391979 
r90 1070 1071 0.0396791 
r91 1069 1070 0.043262 
r92 1068 1069 0.0347594 
r93 1067 1068 0.0194118 
r94 1066 1067 0.0785027 
r95 1065 1066 0.0253476 
r96 1064 1065 0.0265241 
r97 1063 1064 0.0369519 
r98 1062 1063 0.0226738 
r99 1061 1062 0.0224064 
r100 1060 1061 0.0203209 
r101 1059 1060 0.0213904 
r102 1058 1078 0.02 
r103 1058 1059 0.0716578 
r104 1026 1027 0.0140639 
r105 1021 1022 0.0126606 
r106 1054 1019 0.0113761 
r107 1017 1019 0.0638298 
r108 1014 1073 2 
r109 1010 1014 0.000380952 
r110 995 1072 2 
r111 991 1071 0.6 
r112 988 991 0.285 
r113 985 1070 0.6 
r114 982 985 0.32 
r115 970 1069 0.6 
r116 967 970 0.36 
r117 964 1068 0.6 
r118 961 964 0.37 
r119 949 1066 0.6 
r120 946 949 0.3225 
r121 943 1065 0.6 
r122 940 943 0.325 
r123 928 1064 0.6 
r124 925 928 0.3425 
r125 922 1063 0.75 
r126 919 922 0.04 
r127 916 1062 0.6 
r128 913 916 0.365 
r129 901 1061 0.6 
r130 898 901 0.194286 
r131 895 1060 0.6 
r132 892 895 0.3175 
r133 889 1059 0.666667 
r134 887 889 0.96 
r135 880 1021 0.013211 
r136 1017 880 0.000917431 
r137 878 880 0.000913242 
r138 878 1026 0.0638298 
r139 864 865 0.02 
r140 863 1026 0.0113242 
r141 861 863 0.0327869 
r142 861 864 0.0166784 
r143 859 861 0.029258 
r144 856 1089 0.357143 
r145 853 856 0.21 
r146 851 1075 0.00544385 
r147 1073 851 0.0345455 
r148 849 851 1 
r149 849 853 0.445 
r150 844 846 0.00612761 
r151 844 1054 0.0327869 
r152 1004 842 0.130435 
r153 842 1052 0.00301741 
r154 1049 842 0.00301741 
r155 840 842 0.0266667 
r156 840 844 0.0287785 
r157 976 839 0.130435 
r158 839 1047 0.00301741 
r159 1044 839 0.00301741 
r160 837 839 0.0266667 
r161 837 840 0.0242129 
r162 955 836 0.130435 
r163 836 1042 0.00301741 
r164 1039 836 0.00301741 
r165 834 836 0.0266667 
r166 834 837 0.0242129 
r167 833 834 0.000615582 
r168 934 832 0.130435 
r169 832 1037 0.00301741 
r170 1034 832 0.00301741 
r171 830 832 0.0266667 
r172 830 833 0.0235973 
r173 907 829 0.130435 
r174 829 1032 0.00301741 
r175 1029 829 0.00301741 
r176 827 829 0.0266667 
r177 827 830 0.0242129 
r178 826 859 0.02 
r179 826 827 0.0277012 
r180 864 823 0.429445 
r181 820 1088 0.357143 
r182 817 820 0.21 
r183 815 1084 0.144162 
r184 1082 815 0.0334426 
r185 813 815 1 
r186 813 817 0.445 
r187 801 885 3 
r188 798 801 0.0536842 
r189 791 798 0.02 
r190 791 792 6.36632 
r191 788 789 0.1275 
r192 787 788 0.0448391 
r193 786 787 2.75862 
r194 784 786 0.044715 
r195 784 785 0.466667 
r196 783 785 0.0450432 
r197 1084 783 1.29371 
r198 779 798 0.02 
r199 779 780 0.737895 
r200 775 1022 0.230275 
r201 773 1017 0.210275 
r202 771 885 0.109474 
r203 769 882 0.229041 
r204 769 770 0.0863581 
r205 767 878 0.209132 
r206 767 768 0.0863581 
r207 775 765 0.0861375 
r208 765 766 0.132033 
r209 773 764 0.0861375 
r210 771 763 0.0420103 
r211 762 763 3.01467 
r212 760 762 0.0446983 
r213 760 761 0.278667 
r214 759 761 0.0447588 
r215 726 880 0.128 
r216 725 766 0.0473573 
r217 725 880 0.126 
r218 692 726 0.0473573 
r219 770 692 0.132033 
r220 688 880 0.126 
r221 687 887 1.1475 
r222 685 880 0.128 
r223 684 685 0.0473573 
r224 684 768 0.250407 
r225 792 455 6 
r226 1067 453 0.75 
r227 789 451 3 
r228 449 482 0.0494737 
r229 780 449 2 
r230 446 453 0.437895 
r231 446 447 0.0407126 
r232 687 445 0.0338756 
r233 431 455 0.0413535 
r234 431 432 1.14783 
r235 427 428 0.221176 
r236 423 427 0.0446983 
r237 423 424 0.608235 
r238 421 424 0.0446983 
r239 421 447 2.01647 
r240 402 445 0.00880368 
r241 402 403 0.1375 
r242 396 759 0.6025 
r243 396 451 0.0265396 
r244 320 810 0.0419737 
r245 806 320 0.0413851 
r246 833 320 0.00128205 
r247 823 317 2.21804 
r248 317 1082 0.6 
r249 1004 284 0.00313778 
r250 1052 284 0.0652174 
r251 1019 273 0.0141284 
r252 273 1021 0.0652174 
r253 976 234 0.00313778 
r254 1047 234 0.0652174 
r255 224 1004 0.00313778 
r256 1049 224 0.0652174 
r257 955 184 0.00313778 
r258 1042 184 0.0652174 
r259 174 976 0.00313778 
r260 1044 174 0.0652174 
r261 934 134 0.00313778 
r262 1037 134 0.0652174 
r263 124 955 0.00313778 
r264 1039 124 0.0652174 
r265 907 84 0.00313778 
r266 1032 84 0.0652174 
r267 74 934 0.00313778 
r268 1034 74 0.0652174 
r269 34 882 0.0126027 
r270 880 34 0.0131507 
r271 1027 34 0.0652174 
r272 24 907 0.00313778 
r273 1029 24 0.0652174 
r274 10 764 0.250407 
r275 10 688 0.0473573 
.ends

.subckt PM_PC3T03D%VSS 759 799 821 846 851 863 865 870
c0 870 0 92.1909f
c1 863 0 57.2238f
c2 849 0 2.37405f
c3 846 0 0.00368951f
c4 843 0 1.24343f
c5 829 0 16.61f
c6 817 0 1.88726f
c7 810 0 15.7018f
c8 796 0 1.45509f
c9 773 0 24.8356f
c10 771 0 0.0842555f
c11 770 0 10.3623f
c12 769 0 0.0657505f
c13 768 0 7.77003f
c14 766 0 0.184939f
c15 763 0 0.0372194f
c16 759 0 4.21776f
c17 756 0 0.144425f
c18 754 0 0.578389f
c19 747 0 8.78685f
c20 745 0 0.194465f
c21 744 0 0.100013f
c22 743 0 1.92708f
c23 620 0 2.22376f
c24 616 0 2.48828f
c25 612 0 1.35297f
c26 610 0 0.257865f
c27 608 0 0.276497f
c28 605 0 26.6407f
c29 599 0 0.816164f
c30 598 0 6.34069f
c31 592 0 2.03915f
c32 586 0 0.137389f
c33 585 0 2.48809f
c34 584 0 0.154374f
c35 583 0 2.24749f
c36 539 0 0.162892f
c37 537 0 0.72248f
c38 535 0 0.203897f
c39 510 0 2.94312f
c40 496 0 3.05957f
c41 494 0 0.031054f
c42 491 0 0.571035f
c43 490 0 6.91145f
c44 489 0 0.161087f
c45 474 0 3.75323f
c46 471 0 2.96412f
r47 865 868 0.000703354 
r48 861 863 0.00318245 
r49 860 861 0.00119641 
r50 859 860 0.0758524 
r51 858 859 0.0344168 
r52 857 858 0.167059 
r53 856 857 0.128574 
r54 855 856 0.0141176 
r55 854 855 0.089651 
r56 851 854 0.00438684 
r57 849 861 0.461538 
r58 843 846 1.28857 
r59 843 859 1.5 
r60 837 857 0.0535714 
r61 824 860 0.428571 
r62 821 824 0.189 
r63 819 870 0.000702051 
r64 868 819 0.0832563 
r65 817 819 0.131579 
r66 817 821 0.013 
r67 814 815 0.56934 
r68 813 814 1.12447 
r69 810 813 0.628223 
r70 810 858 0.3 
r71 802 854 0.428571 
r72 799 802 0.189 
r73 796 799 0.013 
r74 796 868 0.131579 
r75 770 771 0.0338756 
r76 768 837 2.8715 
r77 768 769 0.0338756 
r78 762 771 0.0338756 
r79 761 769 0.0338756 
r80 759 841 2.59036 
r81 839 759 1.07807 
r82 829 759 1.577 
r83 758 771 0.00880368 
r84 758 759 0.958 
r85 757 769 0.00880368 
r86 757 759 0.986 
r87 766 756 0.0632911 
r88 756 754 0.0574488 
r89 753 763 0.0448201 
r90 750 849 1.518 
r91 749 849 0.426 
r92 747 841 1.08482 
r93 745 839 1.06072 
r94 744 829 1.5265 
r95 743 744 0.0448201 
r96 743 753 2.13041 
r97 770 622 0.733 
r98 759 622 1.93 
r99 620 783 3 
r100 617 837 1.612 
r101 763 617 1.283 
r102 617 856 1.5 
r103 839 616 1 
r104 783 612 0.24 
r105 814 612 1.5 
r106 622 610 3 
r107 813 610 3 
r108 608 841 3 
r109 815 608 3 
r110 605 807 1.1314 
r111 605 855 0.125 
r112 604 616 0.0075 
r113 625 604 0.056 
r114 807 604 0.24 
r115 602 766 0.0155975 
r116 773 602 1 
r117 600 773 0.9662 
r118 600 625 0.02 
r119 599 762 0.5005 
r120 750 599 0.0446983 
r121 598 761 0.5005 
r122 749 598 0.0446983 
r123 597 620 0.830244 
r124 596 620 0.573659 
r125 591 592 1.37048 
r126 586 597 0.0448242 
r127 586 587 0.678222 
r128 585 592 0.0447675 
r129 585 587 0.650667 
r130 584 596 0.0446983 
r131 583 591 0.0447067 
r132 583 584 1.45854 
r133 538 539 0.147619 
r134 534 535 0.14988 
r135 747 534 0.0380723 
r136 531 533 0.143333 
r137 745 530 0.0385542 
r138 528 530 0.14506 
r139 759 527 0.159 
r140 510 759 0.159 
r141 509 539 0.02 
r142 509 527 1.247 
r143 508 535 0.02 
r144 508 510 1.243 
r145 759 507 0.192 
r146 505 759 0.192 
r147 504 505 0.342 
r148 759 504 0.192 
r149 502 759 0.192 
r150 501 502 0.342 
r151 759 501 0.192 
r152 499 759 0.192 
r153 498 499 0.342 
r154 759 498 0.192 
r155 496 759 0.192 
r156 495 538 0.02 
r157 495 507 1.214 
r158 494 537 0.04 
r159 494 496 0.243 
r160 492 534 0.02 
r161 492 537 0.938734 
r162 602 491 0.102486 
r163 490 538 0.0380952 
r164 490 491 4.80524 
r165 489 754 0.555238 
r166 489 533 0.0380952 
r167 759 485 0.159 
r168 483 759 0.159 
r169 482 483 0.408 
r170 759 482 0.159 
r171 480 759 0.159 
r172 479 480 0.408 
r173 759 479 0.159 
r174 477 759 0.159 
r175 476 477 0.408 
r176 759 476 0.159 
r177 474 759 0.159 
r178 473 533 0.02 
r179 473 485 1.247 
r180 472 530 0.02 
r181 472 474 1.243 
r182 471 531 0.02 
r183 470 528 0.02 
r184 470 471 4.69271 
.ends

.subckt PM_PC3T03D%U28_U42_r1 149 154 159 164 169 174 188
c0 303 0 0.252886f
c1 299 0 0.130993f
c2 297 0 0.447165f
c3 292 0 0.447165f
c4 283 0 2.82676f
c5 270 0 0.432351f
c6 259 0 1.21055f
c7 253 0 1.21055f
c8 252 0 0.304369f
c9 250 0 0.379151f
c10 248 0 0.0792102f
c11 247 0 0.329567f
c12 244 0 6.54958f
c13 240 0 5.98872f
c14 238 0 1.11617f
c15 237 0 0.181486f
c16 236 0 1.11617f
c17 235 0 0.626642f
c18 234 0 0.295919f
c19 231 0 0.136486f
c20 225 0 0.0903556f
c21 217 0 0.171288f
c22 211 0 0.678581f
c23 203 0 0.532624f
c24 195 0 0.532624f
c25 189 0 0.305612f
c26 188 0 0.278026f
c27 181 0 0.163718f
c28 180 0 0.615146f
c29 179 0 0.171476f
c30 178 0 0.615146f
c31 177 0 0.171476f
c32 176 0 0.550917f
c33 174 0 3.10095f
c34 169 0 3.04432f
c35 164 0 3.04432f
c36 159 0 3.04432f
c37 154 0 3.04432f
c38 149 0 3.10208f
r39 269 303 0.00341463 
r40 267 269 3 
r41 267 270 0.017 
r42 265 267 0.0283 
r43 263 297 0.00292683 
r44 294 263 0.0526829 
r45 261 263 1.5 
r46 259 261 0.073098 
r47 257 292 0.00536585 
r48 289 257 0.0502439 
r49 255 257 1.5 
r50 253 255 0.073098 
r51 251 270 0.02 
r52 251 252 0.662857 
r53 250 265 0.02 
r54 249 250 0.102305 
r55 247 252 0.0446983 
r56 247 248 0.352857 
r57 244 299 6 
r58 242 248 0.0448488 
r59 242 244 6.78194 
r60 241 259 0.02 
r61 240 249 0.064391 
r62 240 241 7.042 
r63 239 253 0.02 
r64 238 259 0.02 
r65 238 239 1.378 
r66 236 253 0.02 
r67 236 237 1.378 
r68 235 237 0.0661591 
r69 285 234 0.0521951 
r70 233 235 0.11639 
r71 233 234 3 
r72 229 299 0.130323 
r73 228 231 0.153548 
r74 228 229 0.02 
r75 225 283 6 
r76 223 231 0.02 
r77 223 225 0.132903 
r78 222 283 3.99613 
r79 221 222 0.026898 
r80 217 221 0.10143 
r81 217 188 0.106667 
r82 181 211 1.85294 
r83 180 203 5.05882 
r84 179 203 5.05882 
r85 178 195 5.05882 
r86 177 195 5.05882 
r87 176 189 1.85294 
r88 171 181 3.88985 
r89 171 174 183.96 
r90 166 180 3.88985 
r91 166 169 183.96 
r92 161 179 3.88985 
r93 161 164 183.96 
r94 156 178 3.88985 
r95 156 159 183.96 
r96 151 177 3.88985 
r97 151 154 183.96 
r98 146 176 3.88985 
r99 146 149 183.96 
r100 211 99 0.00142683 
r101 303 99 3 
r102 203 81 0.00142683 
r103 297 81 3 
r104 195 56 0.00142683 
r105 292 56 3 
r106 203 45 0.0277856 
r107 294 45 3 
r108 189 20 0.00142683 
r109 285 20 3 
r110 195 9 0.0277856 
r111 289 9 3 
.ends

.subckt PM_PC3T03D%U15_ngate 70 77 84 91 99 107 143 145 193 199
c0 248 0 16.6102f
c1 240 0 0.53366f
c2 235 0 1.20012f
c3 233 0 0.0955656f
c4 232 0 4.78319f
c5 230 0 0.19802f
c6 228 0 6.57281f
c7 225 0 0.101723f
c8 211 0 2.99122f
c9 201 0 0.60308f
c10 200 0 0.166401f
c11 199 0 3.04886f
c12 193 0 3.04886f
c13 153 0 0.431578f
c14 145 0 0.595847f
c15 143 0 0.830826f
c16 140 0 0.149707f
c17 137 0 0.145617f
c18 128 0 0.135503f
c19 125 0 1.31788f
c20 124 0 0.135508f
c21 121 0 0.815081f
c22 116 0 3.13587f
c23 114 0 0.0377296f
c24 113 0 0.0461791f
c25 112 0 0.0266062f
c26 111 0 0.0261329f
c27 107 0 0.972683f
c28 104 0 0.128883f
c29 103 0 1.65084f
c30 99 0 1.31073f
c31 96 0 0.0804526f
c32 95 0 0.252089f
c33 91 0 1.33816f
c34 88 0 0.34697f
c35 84 0 1.42004f
c36 81 0 0.24887f
c37 77 0 1.459f
c38 75 0 0.0500957f
c39 74 0 0.28959f
c40 70 0 1.43018f
c41 26 0 0.437428f
r42 247 248 0.397333 
r43 246 247 5.35733 
r44 243 246 1.948 
r45 235 238 0.0727843 
r46 235 255 1.5 
r47 232 238 0.02 
r48 232 233 5.544 
r49 243 230 6 
r50 228 230 6 
r51 227 233 0.0447005 
r52 227 228 6.41185 
r53 223 225 0.0755556 
r54 216 223 0.02 
r55 240 208 0.00142683 
r56 205 240 0.0277856 
r57 201 240 5.05882 
r58 200 240 5.05882 
r59 195 201 3.88985 
r60 195 199 183.96 
r61 190 200 3.88985 
r62 190 193 183.96 
r63 140 145 60 
r64 140 160 3.77986 
r65 137 143 85 
r66 137 153 3.53757 
r67 128 166 0.0370021 
r68 225 128 6 
r69 125 221 2.59143 
r70 125 248 6 
r71 221 124 6 
r72 216 121 1.53143 
r73 121 247 6 
r74 153 120 0.3325 
r75 211 120 6 
r76 117 214 2.2825 
r77 211 117 1.32 
r78 117 246 6 
r79 116 160 3.7825 
r80 214 116 6 
r81 113 124 0.0613333 
r82 106 107 1.2375 
r83 105 114 0.0310989 
r84 104 106 0.044713 
r85 104 105 0.152258 
r86 103 114 0.0112231 
r87 102 113 0.0447675 
r88 102 103 3.52 
r89 166 99 1.6275 
r90 97 99 1.28 
r91 95 114 0.0310989 
r92 95 96 0.301935 
r93 90 96 0.044713 
r94 90 91 1.2375 
r95 89 112 0.0338756 
r96 88 97 0.0446983 
r97 88 89 0.51 
r98 83 112 0.00880368 
r99 83 84 1.28 
r100 82 111 0.0338756 
r101 81 112 0.0338756 
r102 81 82 0.43 
r103 76 111 0.00880368 
r104 76 77 1.415 
r105 74 111 0.0338756 
r106 74 75 0.51 
r107 69 75 0.0446983 
r108 69 70 1.415 
r109 255 26 0.000487805 
r110 26 208 3 
r111 8 255 0.055122 
r112 8 205 3 
.ends

.subckt PM_PC3T03D%U17_ngate2 54 64 69 76 131 137
c0 176 0 0.533727f
c1 175 0 1.18565f
c2 172 0 0.0646472f
c3 171 0 6.71916f
c4 167 0 4.35202f
c5 165 0 0.5479f
c6 155 0 0.14037f
c7 151 0 0.186288f
c8 141 0 0.200206f
c9 139 0 0.606155f
c10 138 0 0.166949f
c11 137 0 3.04886f
c12 131 0 3.04886f
c13 108 0 0.313586f
c14 103 0 12.6345f
c15 93 0 0.703456f
c16 92 0 3.24331f
c17 87 0 3.09027f
c18 86 0 0.13299f
c19 84 0 0.0352945f
c20 81 0 0.0822206f
c21 80 0 0.238182f
c22 76 0 0.492912f
c23 74 0 0.0294251f
c24 73 0 0.0398528f
c25 69 0 0.491802f
c26 64 0 1.5327f
c27 62 0 0.0689962f
c28 61 0 0.12302f
c29 59 0 0.672535f
c30 58 0 3.58758f
c31 54 0 2.26917f
c32 26 0 0.433003f
r33 173 175 0.0955328 
r34 173 184 1.5 
r35 171 175 0.0867997 
r36 171 172 7.066 
r37 167 169 6 
r38 166 172 0.0446983 
r39 166 167 5.048 
r40 165 169 0.597143 
r41 157 160 0.58625 
r42 155 157 0.0448391 
r43 155 156 0.0717241 
r44 151 153 6 
r45 150 165 0.0446983 
r46 150 151 0.198571 
r47 176 147 0.00142683 
r48 144 176 0.0277856 
r49 141 153 0.10375 
r50 139 176 5.05882 
r51 138 176 5.05882 
r52 133 139 3.88985 
r53 133 137 183.96 
r54 128 138 3.88985 
r55 128 131 183.96 
r56 107 108 0.245 
r57 141 107 0.04 
r58 93 163 0.742857 
r59 93 103 6 
r60 163 92 6 
r61 90 103 1.12267 
r62 160 90 6 
r63 87 160 2.98125 
r64 87 108 6 
r65 156 86 6 
r66 82 92 4.21429 
r67 81 86 0.0468966 
r68 84 76 0.545714 
r69 74 84 0.0464898 
r70 73 82 0.0464898 
r71 73 74 0.0430769 
r72 68 69 0.79 
r73 63 64 1.745 
r74 61 63 0.0451268 
r75 61 62 0.124211 
r76 60 80 0.0321994 
r77 59 68 0.0447517 
r78 59 60 0.647059 
r79 58 62 0.0451268 
r80 57 81 0.0448391 
r81 57 58 5.505 
r82 53 107 0.02 
r83 53 54 2.2575 
r84 52 80 0.010241 
r85 52 54 1.98 
r86 184 26 0.00195122 
r87 26 147 3 
r88 8 184 0.0536585 
r89 8 144 3 
.ends

.subckt PM_PC3T03D%U28_ngate3 51 59 82 88
c0 123 0 14.3737f
c1 117 0 0.533727f
c2 116 0 1.48692f
c3 112 0 0.197182f
c4 110 0 0.295048f
c5 109 0 0.08279f
c6 108 0 0.0753649f
c7 107 0 8.38154f
c8 106 0 4.85393f
c9 100 0 2.6883f
c10 90 0 0.606155f
c11 89 0 0.166949f
c12 88 0 3.04886f
c13 82 0 3.04886f
c14 59 0 0.00729216f
c15 51 0 1.71074f
c16 44 0 3.22339f
c17 26 0 0.425446f
r18 120 123 1.17067 
r19 114 116 0.127062 
r20 114 130 1.5 
r21 120 112 6 
r22 110 112 6 
r23 109 110 0.231 
r24 107 116 0.0867997 
r25 107 108 8.76 
r26 106 109 0.0446983 
r27 105 108 0.0446983 
r28 105 106 5.562 
r29 117 97 0.00142683 
r30 94 117 0.0277856 
r31 90 117 5.05882 
r32 89 117 5.05882 
r33 84 90 3.88985 
r34 84 88 183.96 
r35 79 89 3.88985 
r36 79 82 183.96 
r37 51 48 1.59714 
r38 100 48 6 
r39 45 103 3.29429 
r40 100 45 0.874286 
r41 45 123 6 
r42 44 59 4.93143 
r43 103 44 6 
r44 130 26 0.00097561 
r45 26 97 3 
r46 8 130 0.0546341 
r47 8 94 3 
.ends

.subckt PM_PC3T03D%net_m69_VDDO_res 7 33
c0 33 0 1.66188f
c1 29 0 0.145937f
c2 17 0 0.186885f
c3 16 0 0.801851f
c4 15 0 1.71731f
c5 14 0 0.0801185f
c6 10 0 0.0769244f
c7 9 0 0.112555f
c8 7 0 0.370867f
r9 16 33 2.05452 
r10 16 17 8.75861 
r11 15 29 66.7742 
r12 14 29 60.5806 
r13 11 15 3.35663 
r14 11 17 11.5758 
r15 10 14 3.35347 
r16 9 10 6.625 
r17 6 9 4.5965 
r18 6 7 4.56364 
.ends

.subckt PM_PC3T03D%VDDO 321 766 773 780 787 794 801 808 821 914 933 936 945 950
+ 957 984 1047 1052 1375 1379 1382 1386 1394 1401 1422 1451 1461 1469 1477 1487
+ 1493 1499 1505 1511 1517 1523 1571 1587 1616 1621
c0 1621 0 20.9543f
c1 1613 0 4.29165f
c2 1604 0 6.89048f
c3 1595 0 8.82377f
c4 1590 0 6.18396f
c5 1587 0 51.0423f
c6 1569 0 9.59018f
c7 1565 0 2.98997f
c8 1531 0 9.71068f
c9 1523 0 1.38187f
c10 1517 0 2.71574f
c11 1511 0 1.36359f
c12 1505 0 1.72169f
c13 1499 0 1.95843f
c14 1493 0 0.815237f
c15 1487 0 1.88755f
c16 1477 0 2.48918f
c17 1474 0 3.08982f
c18 1458 0 0.505401f
c19 1454 0 30.3736f
c20 1453 0 1.97524f
c21 1451 0 63.1396f
c22 1449 0 1.61686f
c23 1400 0 51.34f
c24 1390 0 0.600211f
c25 1389 0 1.41036f
c26 1386 0 3.00492f
c27 1379 0 2.50775f
c28 1361 0 0.331843f
c29 1357 0 0.149617f
c30 1351 0 0.234896f
c31 1341 0 0.619196f
c32 1337 0 0.191655f
c33 1333 0 0.616262f
c34 1327 0 2.9701f
c35 1325 0 0.66957f
c36 1322 0 0.0782977f
c37 1320 0 0.591037f
c38 1312 0 2.51112f
c39 1308 0 2.24151f
c40 1306 0 0.0918332f
c41 1305 0 0.0388945f
c42 1304 0 0.0455441f
c43 1303 0 0.666326f
c44 1300 0 0.236538f
c45 1260 0 9.76182f
c46 1251 0 0.877516f
c47 1071 0 0.336758f
c48 1047 0 0.457512f
c49 1006 0 4.04554f
c50 1001 0 0.147927f
c51 1000 0 1.9856f
c52 998 0 0.288971f
c53 994 0 0.00598355f
c54 992 0 8.36434f
c55 991 0 3.3608f
c56 986 0 1.02202f
c57 983 0 0.0193183f
c58 981 0 0.0208492f
c59 980 0 5.70938f
c60 977 0 0.196769f
c61 967 0 0.0968354f
c62 964 0 0.0596675f
c63 963 0 3.19808f
c64 962 0 1.13685f
c65 957 0 1.43993f
c66 954 0 0.451293f
c67 950 0 1.37574f
c68 936 0 0.339048f
c69 933 0 0.670818f
c70 931 0 0.0562526f
c71 930 0 0.4745f
c72 929 0 0.0297498f
c73 928 0 0.500512f
c74 927 0 0.247261f
c75 914 0 1.45075f
c76 821 0 7.10594f
c77 813 0 7.25248f
c78 801 0 0.00989968f
c79 794 0 0.00989968f
c80 787 0 0.0234465f
c81 780 0 0.0106158f
c82 773 0 0.0106158f
c83 766 0 0.00828265f
c84 733 0 12.0349f
c85 731 0 19.7073f
c86 729 0 19.7073f
c87 727 0 19.5543f
c88 725 0 19.7073f
c89 723 0 19.7068f
c90 721 0 11.8046f
c91 695 0 0.114758f
c92 694 0 6.34573f
c93 691 0 0.103657f
c94 690 0 6.29468f
c95 321 0 0.613122f
c96 17 0 0.486838f
c97 16 0 6.73982f
c98 7 0 0.152029f
c99 6 0 6.75738f
r100 1616 1619 0.00394881 
r101 1613 1614 0.956244 
r102 1606 1607 0.279231 
r103 1604 1606 0.266538 
r104 1597 1598 0.273962 
r105 1595 1597 0.261509 
r106 1584 1585 0.32854 
r107 1583 1584 0.0205664 
r108 1582 1583 0.0319826 
r109 1581 1582 0.0354248 
r110 1580 1581 0.0124619 
r111 1579 1580 0.0353377 
r112 1578 1579 0.0354684 
r113 1577 1578 0.0128105 
r114 1576 1577 0.0256209 
r115 1575 1576 0.0186492 
r116 1568 1569 0.0228571 
r117 1567 1587 0.00304139 
r118 1585 1567 0.00174292 
r119 1565 1567 0.461538 
r120 1526 1584 0.6 
r121 1523 1526 0.4475 
r122 1520 1583 0.6 
r123 1517 1520 1.6625 
r124 1514 1582 0.666667 
r125 1511 1514 0.365 
r126 1508 1581 0.545455 
r127 1505 1508 1.4825 
r128 1502 1580 0.545455 
r129 1499 1502 1.63 
r130 1496 1579 0.75 
r131 1493 1496 0.1575 
r132 1490 1578 0.75 
r133 1487 1490 1.1525 
r134 1569 1486 8.29935 
r135 1484 1486 3.62581 
r136 1480 1577 0.5 
r137 1477 1480 1.455 
r138 1476 1575 0.00174292 
r139 1571 1476 0.00305011 
r140 1474 1476 0.461538 
r141 1469 1613 0.2 
r142 1465 1621 0.0039415 
r143 1619 1465 0.467422 
r144 1463 1465 0.5 
r145 1461 1463 0.181 
r146 1458 1461 0.17 
r147 1458 1585 1.5 
r148 1455 1456 0.5433 
r149 1454 1455 0.2247 
r150 1453 1469 0.0528252 
r151 1453 1456 0.099 
r152 1614 1449 0.698216 
r153 1447 1449 0.2 
r154 1447 1451 0.0136564 
r155 1607 1446 0.279231 
r156 1446 1444 0.279231 
r157 1444 1442 0.279231 
r158 1442 1440 0.266538 
r159 1438 1440 1.5 
r160 1438 1442 1.5 
r161 1438 1444 1.5 
r162 1438 1446 1.5 
r163 1438 1447 0.0314855 
r164 1437 1438 0.0601494 
r165 1598 1436 0.273962 
r166 1436 1434 0.273962 
r167 1434 1432 0.273962 
r168 1432 1430 0.261509 
r169 1428 1430 1.5 
r170 1428 1432 1.5 
r171 1428 1434 1.5 
r172 1428 1436 1.5 
r173 1428 1437 0.0634357 
r174 1592 1427 0.000747664 
r175 1425 1427 0.2 
r176 1425 1428 0.0334274 
r177 1422 1425 0.01361 
r178 1416 1606 1.5 
r179 1416 1604 1.5 
r180 1416 1607 1.5 
r181 1414 1416 0.0694058 
r182 1408 1597 1.5 
r183 1408 1595 1.5 
r184 1408 1414 0.0805639 
r185 1408 1598 1.5 
r186 1404 1590 0.2 
r187 1404 1408 0.0404834 
r188 1401 1404 0.0165962 
r189 1400 1469 0.0245381 
r190 1400 1416 0.0330312 
r191 1397 1619 0.5 
r192 1394 1397 0.181 
r193 1390 1575 1.5 
r194 1390 1394 0.17 
r195 1389 1454 0.5293 
r196 1363 1366 3 
r197 1531 1363 0.0677429 
r198 1361 1363 3 
r199 1531 1353 0.1116 
r200 1562 1353 0.0028 
r201 1351 1353 6 
r202 1330 1568 6 
r203 1325 1327 6 
r204 1325 1330 0.752258 
r205 1319 1322 0.0446983 