* File: ad01d0.sp
* Created: Sun Feb 14 18:51:16 2010
* Program "Calibre xRC"
* Version "v2008.2_11.12"
* 
.options scale=1u
.SUBCKT ad01d0 CO S  A B CI VDD VSS

* 
MM4 VSS A 12 VSS N18 L=0.18594 W=1.30042 AD=0.290644 AS=0.49645 PD=1.78863
+ PS=3.34042
MM9 VSS B 12 VSS N18 L=0.18 W=1.23 AD=0.274906 AS=0.287238 PD=1.69178
+ PS=1.76267
MM13 12 CI 4 VSS N18 L=0.186847 W=1.19456 AD=0.278962 AS=0.34125 PD=1.71188
+ PS=1.81389
MM5 4 A 16 VSS N18 L=0.18 W=1.12 AD=0.31995 AS=0.1568 PD=1.70067 PS=1.4
MM10 VSS B 16 VSS N18 L=0.18 W=1.12 AD=0.257335 AS=0.1568 PD=1.57486 PS=1.4
MM11 9 B VSS VSS N18 L=0.186847 W=1.19456 AD=0.327108 AS=0.274465 PD=1.80356
+ PS=1.6797
MM3 9 A VSS VSS N18 L=0.18 W=1.12 AD=0.306692 AS=0.254677 PD=1.69099 PS=1.57888
MM14 9 CI VSS VSS N18 L=0.187203 W=1.1987 AD=0.28839 AS=0.272573 PD=1.75523
+ PS=1.68982
MM8 6 4 9 VSS N18 L=0.185718 W=1.19213 AD=0.291751 AS=0.28681 PD=1.70773
+ PS=1.74561
MM6 6 CI 15 VSS N18 L=0.18 W=1.12 AD=0.274099 AS=0.2072 PD=1.6044 PS=1.49
MM7 14 A 15 VSS N18 L=0.18 W=1.12 AD=0.22714 AS=0.2072 PD=1.54583 PS=1.49
MM12 VSS B 14 VSS N18 L=0.186847 W=1.19456 AD=0.461 AS=0.24226 PD=3.13456
+ PS=1.64873
MM1 S 6 VSS VSS N18 L=0.18 W=0.57 AD=0.2793 AS=0.29205 PD=2.12 PS=1.93
MM2 VSS 4 CO VSS N18 L=0.18 W=0.57 AD=0.29205 AS=0.2793 PD=1.93 PS=2.12
MM18 13 A VDD VDD P18 L=0.185807 W=1.33042 AD=0.52305 AS=0.322715 PD=3.40042
+ PS=1.86969
MM26 13 B VDD VDD P18 L=0.18 W=1.26 AD=0.297264 AS=0.305635 PD=1.72983
+ PS=1.77073
MM27 13 CI 4 VDD P18 L=0.186222 W=1.31456 AD=0.310136 AS=0.337882 PD=1.80473
+ PS=1.8909
MM19 19 A 4 VDD P18 L=0.18 W=1.24 AD=0.1798 AS=0.318718 PD=1.53 PS=1.78366
MM24 VDD B 19 VDD P18 L=0.18 W=1.24 AD=0.354611 AS=0.1798 PD=1.83387 PS=1.53
MM17 VDD A 7 VDD P18 L=0.18 W=1.37 AD=0.391789 AS=0.418807 PD=2.02613 PS=2.0078
MM28 VDD CI 7 VDD P18 L=0.191419 W=1.83054 AD=0.685496 AS=0.559593 PD=3.43274
+ PS=2.68274
MM25 VDD B 7 VDD P18 L=0.18 W=1.14 AD=0.426904 AS=0.270281 PD=2.1378 PS=1.61515
MM22 6 4 7 VDD P18 L=0.188461 W=1.23527 AD=0.369597 AS=0.292869 PD=2.09872
+ PS=1.75012
MM20 6 CI 18 VDD P18 L=0.18 W=1.44 AD=0.430853 AS=0.2016 PD=2.44655 PS=1.72
MM21 17 A 18 VDD P18 L=0.18 W=1.44 AD=0.2448 AS=0.2016 PD=1.78 PS=1.72
MM23 VDD B 17 VDD P18 L=0.18 W=1.44 AD=0.6846 AS=0.2448 PD=4.78 PS=1.78
MM15 S 6 VDD VDD P18 L=0.18 W=0.85 AD=0.4165 AS=0.36985 PD=2.68 PS=2.28
MM16 VDD 4 CO VDD P18 L=0.18 W=0.85 AD=0.36985 AS=0.4165 PD=2.28 PS=2.68
c_19 VDD 0 0.839317f
c_30 A 0 0.711123f
c_40 VSS 0 0.927885f
c_56 4 0 0.502465f
c_68 B 0 1.05534f
c_91 CI 0 0.712434f
c_106 6 0 0.280123f
c_112 S 0 0.0311084f
c_118 CO 0 0.127856f
*
.include "ad01d0.sp.ad01d0.pxi"
*
.ends
*
*
* File: ad01d1.sp
* Created: Sun Feb 14 18:51:24 2010
* Program "Calibre xRC"
* Version "v2008.2_11.12"
* 
.options scale=1u
.SUBCKT ad01d1 CO S  A B CI VDD VSS

* 
MM4 VSS A 12 VSS N18 L=0.18594 W=1.30042 AD=0.290644 AS=0.49645 PD=1.78863
+ PS=3.34042
MM9 VSS B 12 VSS N18 L=0.18 W=1.23 AD=0.274906 AS=0.287238 PD=1.69178
+ PS=1.76267
MM13 12 CI 4 VSS N18 L=0.186847 W=1.19456 AD=0.278962 AS=0.34125 PD=1.71188
+ PS=1.81389
MM5 4 A 16 VSS N18 L=0.18 W=1.12 AD=0.31995 AS=0.1568 PD=1.70067 PS=1.4
MM10 VSS B 16 VSS N18 L=0.18 W=1.12 AD=0.257335 AS=0.1568 PD=1.57486 PS=1.4
MM11 9 B VSS VSS N18 L=0.186847 W=1.19456 AD=0.327108 AS=0.274465 PD=1.80356
+ PS=1.6797
MM3 9 A VSS VSS N18 L=0.18 W=1.12 AD=0.306692 AS=0.254677 PD=1.69099 PS=1.57888
MM14 9 CI VSS VSS N18 L=0.187203 W=1.1987 AD=0.28839 AS=0.272573 PD=1.75523
+ PS=1.68982
MM8 6 4 9 VSS N18 L=0.185718 W=1.19213 AD=0.291751 AS=0.28681 PD=1.70773
+ PS=1.74561
MM6 6 CI 15 VSS N18 L=0.18 W=1.12 AD=0.274099 AS=0.2072 PD=1.6044 PS=1.49
MM7 14 A 15 VSS N18 L=0.18 W=1.12 AD=0.22714 AS=0.2072 PD=1.54583 PS=1.49
MM12 VSS B 14 VSS N18 L=0.186847 W=1.19456 AD=0.461 AS=0.24226 PD=3.13456
+ PS=1.64873
MM1 VSS 6 S VSS N18 L=0.18 W=1.02 AD=0.229512 AS=0.4998 PD=1.47343 PS=3.02
MM2 CO 4 VSS VSS N18 L=0.187473 W=1.09456 AD=0.543 AS=0.246288 PD=3.21456
+ PS=1.58113
MM18 13 A VDD VDD P18 L=0.185807 W=1.33042 AD=0.52305 AS=0.322715 PD=3.40042
+ PS=1.86969
MM26 13 B VDD VDD P18 L=0.18 W=1.26 AD=0.297264 AS=0.305635 PD=1.72983
+ PS=1.77073
MM27 13 CI 4 VDD P18 L=0.186222 W=1.31456 AD=0.310136 AS=0.337882 PD=1.80473
+ PS=1.8909
MM19 19 A 4 VDD P18 L=0.18 W=1.24 AD=0.1798 AS=0.318718 PD=1.53 PS=1.78366
MM24 VDD B 19 VDD P18 L=0.18 W=1.24 AD=0.354611 AS=0.1798 PD=1.83387 PS=1.53
MM17 VDD A 7 VDD P18 L=0.18 W=1.37 AD=0.391789 AS=0.418807 PD=2.02613 PS=2.0078
MM28 VDD CI 7 VDD P18 L=0.191419 W=1.83054 AD=0.685496 AS=0.559593 PD=3.43274
+ PS=2.68274
MM25 VDD B 7 VDD P18 L=0.18 W=1.14 AD=0.426904 AS=0.270281 PD=2.1378 PS=1.61515
MM22 6 4 7 VDD P18 L=0.188461 W=1.23527 AD=0.369597 AS=0.292869 PD=2.09872
+ PS=1.75012
MM20 6 CI 18 VDD P18 L=0.18 W=1.44 AD=0.430853 AS=0.2016 PD=2.44655 PS=1.72
MM21 17 A 18 VDD P18 L=0.18 W=1.44 AD=0.2448 AS=0.2016 PD=1.78 PS=1.72
MM23 VDD B 17 VDD P18 L=0.18 W=1.44 AD=0.8052 AS=0.2448 PD=4.78 PS=1.78
MM15 VDD 6 S VDD P18 L=0.18 W=1.55 AD=0.369318 AS=0.5716 PD=2.00896 PS=4.1
MM16 VDD 4 CO VDD P18 L=0.185035 W=1.62456 AD=0.387082 AS=0.7565 PD=2.1056
+ PS=4.21456
c_18 VDD 0 0.854229f
c_29 A 0 0.711029f
c_39 VSS 0 0.926393f
c_55 4 0 0.47411f
c_67 B 0 1.06129f
c_90 CI 0 0.712434f
c_105 6 0 0.256688f
c_111 S 0 0.0281687f
c_116 CO 0 0.101021f
*
.include "ad01d1.sp.ad01d1.pxi"
*
.ends
*
*
* File: ad01d2.sp
* Created: Sun Feb 14 18:51:32 2010
* Program "Calibre xRC"
* Version "v2008.2_11.12"
* 
.options scale=1u
.SUBCKT ad01d2 CO S  A B CI VDD VSS

* 
MM4 VSS A 12 VSS N18 L=0.186418 W=1.27456 AD=0.281225 AS=0.4884 PD=1.75872
+ PS=3.29456
MM13 VSS B 12 VSS N18 L=0.18 W=1.2 AD=0.264775 AS=0.281558 PD=1.65584
+ PS=1.73287
MM1 12 CI 3 VSS N18 L=0.187024 W=1.16456 AD=0.273242 AS=0.330841 PD=1.68169
+ PS=1.7844
MM5 3 A 14 VSS N18 L=0.18 W=1.09 AD=0.309659 AS=0.1526 PD=1.67016 PS=1.37
MM14 VSS B 14 VSS N18 L=0.18 W=1.09 AD=0.248984 AS=0.1526 PD=1.54446 PS=1.37
MM15 9 B VSS VSS N18 L=0.187024 W=1.16456 AD=0.319632 AS=0.266016 PD=1.77407
+ PS=1.6501
MM3 9 A VSS VSS N18 L=0.18 W=1.09 AD=0.299168 AS=0.244633 PD=1.66049 PS=1.54446
MM2 9 CI VSS VSS N18 L=0.187024 W=1.16456 AD=0.279617 AS=0.261367 PD=1.71248
+ PS=1.6501
MM12 6 3 9 VSS N18 L=0.185916 W=1.15213 AD=0.279563 AS=0.276633 PD=1.66085
+ PS=1.69421
MM10 6 CI 16 VSS N18 L=0.18 W=1.09 AD=0.264487 AS=0.19075 PD=1.57128 PS=1.44
MM11 15 A 16 VSS N18 L=0.18 W=1.09 AD=0.2096 AS=0.19075 PD=1.51145 PS=1.44
MM16 VSS B 15 VSS N18 L=0.189546 W=1.2377 AD=0.339775 AS=0.238 PD=1.95843
+ PS=1.71625
MM7 VSS 6 S VSS N18 L=0.186949 W=1.04627 AD=0.287225 AS=0.250535 PD=1.65554
+ PS=1.56263
MM6 VSS 6 S VSS N18 L=0.18 W=0.98 AD=0.341333 AS=0.234665 PD=2.34392 PS=1.46365
MM9 VSS 3 CO VSS N18 L=0.18 W=0.96 AD=0.334367 AS=0.236909 PD=2.29608
+ PS=1.45886
MM8 VSS 3 CO VSS N18 L=0.186669 W=1.02213 AD=0.66125 AS=0.252241 PD=4.35213
+ PS=1.55328
MM20 13 A VDD VDD P18 L=0.185807 W=1.33042 AD=0.52305 AS=0.322715 PD=3.40042
+ PS=1.86969
MM32 13 B VDD VDD P18 L=0.18 W=1.26 AD=0.297264 AS=0.305635 PD=1.72983
+ PS=1.77073
MM17 13 CI 3 VDD P18 L=0.186222 W=1.31456 AD=0.310136 AS=0.337882 PD=1.80473
+ PS=1.8909
MM21 17 A 3 VDD P18 L=0.18 W=1.24 AD=0.1798 AS=0.318718 PD=1.53 PS=1.78366
MM29 VDD B 17 VDD P18 L=0.18 W=1.24 AD=0.354611 AS=0.1798 PD=1.83387 PS=1.53
MM19 VDD A 7 VDD P18 L=0.18 W=1.37 AD=0.391789 AS=0.406925 PD=2.02613
+ PS=1.99739
MM18 VDD CI 7 VDD P18 L=0.190747 W=1.81811 AD=0.671871 AS=0.540025 PD=3.39768
+ PS=2.65072
MM30 VDD B 7 VDD P18 L=0.18 W=1.14 AD=0.421279 AS=0.281395 PD=2.13043
+ PS=1.63263
MM28 7 3 6 VDD P18 L=0.189135 W=1.24355 AD=0.306955 AS=0.34266 PD=1.78093
+ PS=2.0823
MM26 19 CI 6 VDD P18 L=0.18 W=1.44 AD=0.2016 AS=0.39679 PD=1.72 PS=2.41125
MM27 18 A 19 VDD P18 L=0.18 W=1.44 AD=0.2016 AS=0.2016 PD=1.72 PS=1.72
MM31 VDD B 18 VDD P18 L=0.18 W=1.44 AD=0.34089 AS=0.2016 PD=1.97858 PS=1.72
MM23 VDD 6 S VDD P18 L=0.185262 W=1.55456 AD=0.36801 AS=0.401078 PD=2.13598
+ PS=2.10175
MM22 VDD 6 S VDD P18 L=0.18442 W=1.54213 AD=0.376306 AS=0.397872 PD=2.06772
+ PS=2.08495
MM25 VDD 3 CO VDD P18 L=0.18 W=1.48 AD=0.361144 AS=0.337936 PD=1.98441
+ PS=1.94396
MM24 VDD 3 CO VDD P18 L=0.184983 W=1.55042 AD=0.59005 AS=0.354014 PD=3.84042
+ PS=2.03645
c_18 VDD 0 0.916185f
c_29 A 0 0.701352f
c_38 VSS 0 0.961767f
c_54 3 0 0.612432f
c_66 B 0 1.04469f
c_89 CI 0 0.713605f
c_104 6 0 0.318801f
c_110 S 0 0.0161357f
c_114 CO 0 0.00687063f
*
.include "ad01d2.sp.ad01d2.pxi"
*
.ends
*
*
* File: adiode.sp
* Created: Sun Feb 14 18:51:39 2010
* Program "Calibre xRC"
* Version "v2008.2_11.12"
* 
.options scale=1u
.SUBCKT adiode   I VDD VSS

* 
D1 VSS I DN18  AREA=0.4624 PJ=2.72
D2 I VDD DP18  AREA=0.4624 PJ=2.72
c_1 I 0 0.127254f
c_2 VSS 0 0.197949f
c_3 VDD 0 0.197949f
*
.include "adiode.sp.adiode.pxi"
*
.ends
*
*
* File: adp1d0.sp
* Created: Sun Feb 14 18:51:47 2010
* Program "Calibre xRC"
* Version "v2008.2_11.12"
* 
.options scale=1u
.SUBCKT adp1d0 CO P S  A B CI VDD VSS

* 
MM7 10 CI VSS VSS N18 L=0.18 W=0.48 AD=0.4176 AS=0.2784 PD=2.7 PS=2.12
MM4 S 11 VSS VSS N18 L=0.18715 W=1.08042 AD=0.40565 AS=0.451445 PD=2.90042
+ PS=2.62352
MM3 22 CI VSS VSS N18 L=0.18 W=0.74 AD=0.1036 AS=0.309205 PD=1.02 PS=1.7969
MM1 11 6 22 VSS N18 L=0.18 W=0.74 AD=0.2072 AS=0.1036 PD=1.3 PS=1.02
MM5 21 7 11 VSS N18 L=0.18 W=0.74 AD=0.1036 AS=0.2072 PD=1.02 PS=1.3
MM6 21 10 VSS VSS N18 L=0.18 W=0.74 AD=0.1036 AS=0.346129 PD=1.02 PS=2.57806
MM2 7 6 VSS VSS N18 L=0.18 W=0.5 AD=0.245 AS=0.233871 PD=1.98 PS=1.74194
MM14 VSS 6 P VSS N18 L=0.18 W=1.54 AD=0.548764 AS=0.5684 PD=2.80477 PS=4.08
MM18 VSS B 17 VSS N18 L=0.18 W=0.81 AD=0.288636 AS=0.1134 PD=1.47523 PS=1.09
MM19 17 2 6 VSS N18 L=0.18 W=0.81 AD=0.1134 AS=0.2268 PD=1.09 PS=1.37
MM15 18 5 6 VSS N18 L=0.18 W=0.81 AD=0.2025 AS=0.2268 PD=1.31 PS=1.37
MM16 18 A VSS VSS N18 L=0.18 W=0.81 AD=0.2025 AS=0.453223 PD=1.31 PS=2.75023
MM17 5 B VSS VSS N18 L=0.18 W=0.48 AD=0.2352 AS=0.268577 PD=1.94 PS=1.62977
MM12 2 A VSS VSS N18 L=0.18 W=0.42 AD=0.21 AS=0.204055 PD=1.84 PS=1.06615
MM9 noxref_25 CI VSS VSS N18 L=0.18 W=0.88 AD=0.132 AS=0.427545 PD=1.18
+ PS=2.23385
MM10 noxref_25 7 9 VSS N18 L=0.18 W=0.88 AD=0.132 AS=0.2464 PD=1.18 PS=1.44
MM11 9 A noxref_26 VSS N18 L=0.18 W=0.88 AD=0.2464 AS=0.1232 PD=1.44 PS=1.16
MM13 noxref_26 B VSS VSS N18 L=0.18 W=0.88 AD=0.1232 AS=0.433433 PD=1.16
+ PS=2.88955
MM8 CO 9 VSS VSS N18 L=0.18 W=0.46 AD=0.2254 AS=0.226567 PD=1.9 PS=1.51045
MM20 10 CI VDD VDD P18 L=0.18 W=0.63 AD=0.3087 AS=0.3087 PD=2.24 PS=2.24
MM24 S 11 VDD VDD P18 L=0.184797 W=1.61042 AD=0.58375 AS=0.383919 PD=3.96042
+ PS=2.09603
MM23 25 CI VDD VDD P18 L=0.18 W=1.54 AD=0.2156 AS=0.367131 PD=1.82 PS=2.00438
MM25 25 7 11 VDD P18 L=0.18 W=1.54 AD=0.2156 AS=0.343407 PD=1.82 PS=2.0509
MM22 11 6 26 VDD P18 L=0.18533 W=1.53456 AD=0.342193 AS=0.2846 PD=2.04366
+ PS=1.91456
MM26 VDD 10 26 VDD P18 L=0.18533 W=1.53456 AD=0.45952 AS=0.2846 PD=2.91341
+ PS=1.91456
MM21 VDD 6 7 VDD P18 L=0.18 W=0.58 AD=0.17368 AS=0.2842 PD=1.10115 PS=2.14
MM34 P 6 VDD VDD P18 L=0.18 W=1.54 AD=0.8056 AS=0.340166 PD=4.64 PS=1.99889
MM37 VDD B 23 VDD P18 L=0.185066 W=1.61456 AD=0.356634 AS=0.296516 PD=2.09567
+ PS=1.98097
MM36 6 A 23 VDD P18 L=0.184254 W=1.60213 AD=0.359802 AS=0.294234 PD=2.09672
+ PS=1.96572
MM38 24 2 6 VDD P18 L=0.18 W=1.54 AD=0.2156 AS=0.345848 PD=1.82 PS=2.01541
MM35 24 5 VDD VDD P18 L=0.18 W=1.54 AD=0.2156 AS=0.7152 PD=1.82 PS=4.76
MM28 VDD B 5 VDD P18 L=0.18 W=0.55 AD=0.45365 AS=0.2695 PD=2.69 PS=2.08
MM27 VDD A 2 VDD P18 L=0.18 W=0.55 AD=0.45365 AS=0.2695 PD=2.69 PS=2.08
MM32 VDD A noxref_14 VDD P18 L=0.18 W=1.24 AD=0.7378 AS=0.281148 PD=4.44
+ PS=1.69628
MM30 9 CI noxref_14 VDD P18 L=0.186222 W=1.31456 AD=0.290642 AS=0.298052
+ PD=1.79828 PS=1.79828
MM31 9 7 noxref_14 VDD P18 L=0.18 W=1.24 AD=0.274158 AS=0.27241 PD=1.69628
+ PS=1.69628
MM33 noxref_14 B VDD VDD P18 L=0.186222 W=1.31456 AD=0.28879 AS=0.475316
+ PD=1.79828 PS=2.92746
MM29 CO 9 VDD VDD P18 L=0.18 W=0.56 AD=0.4716 AS=0.202484 PD=3.78 PS=1.2471
c_19 CI 0 1.05883f
c_31 VDD 0 1.2011f
c_44 VSS 0 1.01322f
c_54 10 0 0.180027f
c_58 S 0 0.051893f
c_68 11 0 0.163716f
c_84 7 0 0.47134f
c_90 P 0 0.0363082f
c_104 6 0 0.880227f
c_114 2 0 0.2328f
c_124 5 0 0.162937f
c_137 B 0 1.0256f
c_148 A 0 1.22806f
c_164 9 0 0.253309f
c_168 CO 0 0.120526f
*
.include "adp1d0.sp.adp1d0.pxi"
*
.ends
*
*
* File: adp1d1.sp
* Created: Sun Feb 14 18:51:54 2010
* Program "Calibre xRC"
* Version "v2008.2_11.12"
* 
.options scale=1u
.SUBCKT adp1d1 CO P S  A B CI VDD VSS

* 
MM7 10 CI VSS VSS N18 L=0.18 W=0.48 AD=0.4176 AS=0.2784 PD=2.7 PS=2.12
MM4 S 11 VSS VSS N18 L=0.18715 W=1.08042 AD=0.40565 AS=0.451445 PD=2.90042
+ PS=2.62352
MM3 22 CI VSS VSS N18 L=0.18 W=0.74 AD=0.1036 AS=0.309205 PD=1.02 PS=1.7969
MM1 11 6 22 VSS N18 L=0.18 W=0.74 AD=0.2072 AS=0.1036 PD=1.3 PS=1.02
MM5 21 7 11 VSS N18 L=0.18 W=0.74 AD=0.1036 AS=0.2072 PD=1.02 PS=1.3
MM6 21 10 VSS VSS N18 L=0.18 W=0.74 AD=0.1036 AS=0.346129 PD=1.02 PS=2.57806
MM2 7 6 VSS VSS N18 L=0.18 W=0.5 AD=0.245 AS=0.233871 PD=1.98 PS=1.74194
MM14 VSS 6 P VSS N18 L=0.18 W=1.54 AD=0.538672 AS=0.5726 PD=2.79166 PS=4.1
MM18 VSS B 17 VSS N18 L=0.18 W=0.81 AD=0.283328 AS=0.1134 PD=1.46834 PS=1.09
MM19 17 2 6 VSS N18 L=0.18 W=0.81 AD=0.1134 AS=0.2268 PD=1.09 PS=1.37
MM15 18 5 6 VSS N18 L=0.18 W=0.81 AD=0.2025 AS=0.2268 PD=1.31 PS=1.37
MM16 18 A VSS VSS N18 L=0.18 W=0.81 AD=0.2025 AS=0.453223 PD=1.31 PS=2.75023
MM17 5 B VSS VSS N18 L=0.18 W=0.48 AD=0.2352 AS=0.268577 PD=1.94 PS=1.62977
MM12 2 A VSS VSS N18 L=0.18 W=0.42 AD=0.21 AS=0.204055 PD=1.84 PS=1.06615
MM9 noxref_25 CI VSS VSS N18 L=0.18 W=0.88 AD=0.132 AS=0.427545 PD=1.18
+ PS=2.23385
MM10 noxref_25 7 9 VSS N18 L=0.18 W=0.88 AD=0.132 AS=0.2464 PD=1.18 PS=1.44
MM11 9 A noxref_26 VSS N18 L=0.18 W=0.88 AD=0.2464 AS=0.1232 PD=1.44 PS=1.16
MM13 noxref_26 B VSS VSS N18 L=0.18 W=0.88 AD=0.1232 AS=0.253208 PD=1.16
+ PS=1.48024
MM8 CO 9 VSS VSS N18 L=0.185865 W=1.62698 AD=0.62405 AS=0.468142 PD=4.01698
+ PS=2.73674
MM20 10 CI VDD VDD P18 L=0.18 W=0.65 AD=0.3185 AS=0.3185 PD=2.28 PS=2.28
MM24 S 11 VDD VDD P18 L=0.184797 W=1.61042 AD=0.58375 AS=0.383919 PD=3.96042
+ PS=2.09603
MM23 25 CI VDD VDD P18 L=0.18 W=1.54 AD=0.2156 AS=0.367131 PD=1.82 PS=2.00438
MM25 25 7 11 VDD P18 L=0.18 W=1.54 AD=0.2156 AS=0.343407 PD=1.82 PS=2.0509
MM22 11 6 26 VDD P18 L=0.18533 W=1.53456 AD=0.342193 AS=0.2846 PD=2.04366
+ PS=1.91456
MM26 VDD 10 26 VDD P18 L=0.18533 W=1.53456 AD=0.45952 AS=0.2846 PD=2.91341
+ PS=1.91456
MM21 VDD 6 7 VDD P18 L=0.18 W=0.58 AD=0.17368 AS=0.2842 PD=1.10115 PS=2.14
MM34 P 6 VDD VDD P18 L=0.18 W=1.54 AD=0.8056 AS=0.340166 PD=4.64 PS=1.99889
MM37 VDD B 23 VDD P18 L=0.185066 W=1.61456 AD=0.356634 AS=0.296516 PD=2.09567
+ PS=1.98097
MM36 6 A 23 VDD P18 L=0.184254 W=1.60213 AD=0.359802 AS=0.294234 PD=2.09672
+ PS=1.96572
MM38 24 2 6 VDD P18 L=0.18 W=1.54 AD=0.2156 AS=0.345848 PD=1.82 PS=2.01541
MM35 24 5 VDD VDD P18 L=0.18 W=1.54 AD=0.2156 AS=0.7152 PD=1.82 PS=4.76
MM28 VDD B 5 VDD P18 L=0.18 W=0.55 AD=0.459 AS=0.2695 PD=2.7 PS=2.08
MM27 VDD A 2 VDD P18 L=0.18 W=0.55 AD=0.459 AS=0.2695 PD=2.7 PS=2.08
MM32 VDD A noxref_14 VDD P18 L=0.18 W=1.17 AD=0.733 AS=0.261663 PD=4.44
+ PS=1.62549
MM30 9 CI noxref_14 VDD P18 L=0.186572 W=1.24456 AD=0.277409 AS=0.278337
+ PD=1.72907 PS=1.72907
MM31 9 7 noxref_14 VDD P18 L=0.18 W=1.17 AD=0.260791 AS=0.267717 PD=1.62549
+ PS=1.6484
MM33 noxref_14 B VDD VDD P18 L=0.186175 W=1.32456 AD=0.303083 AS=0.349292
+ PD=1.86616 PS=1.89635
MM29 CO 9 VDD VDD P18 L=0.185524 W=1.31627 AD=0.5191 AS=0.347108 PD=3.42627
+ PS=1.88449
c_19 CI 0 1.06184f
c_31 VDD 0 1.21161f
c_44 VSS 0 0.993517f
c_54 10 0 0.178855f
c_58 S 0 0.0526021f
c_68 11 0 0.164519f
c_84 7 0 0.46658f
c_90 P 0 0.0359212f
c_104 6 0 0.886133f
c_114 2 0 0.230828f
c_124 5 0 0.152065f
c_137 B 0 1.01277f
c_148 A 0 1.24065f
c_164 9 0 0.160928f
c_168 CO 0 0.121123f
*
.include "adp1d1.sp.adp1d1.pxi"
*
.ends
*
*
* File: adp1d2.sp
* Created: Sun Feb 14 18:52:02 2010
* Program "Calibre xRC"
* Version "v2008.2_11.12"
* 
.options scale=1u
.SUBCKT adp1d2 CO P S  A B CI VDD VSS

* 
MM7 10 CI VSS VSS N18 L=0.18 W=0.48 AD=0.4176 AS=0.2784 PD=2.7 PS=2.12
MM4 S 11 VSS VSS N18 L=0.18715 W=1.08042 AD=0.40565 AS=0.451445 PD=2.90042
+ PS=2.62352
MM3 22 CI VSS VSS N18 L=0.18 W=0.74 AD=0.1036 AS=0.309205 PD=1.02 PS=1.7969
MM1 22 6 11 VSS N18 L=0.18 W=0.74 AD=0.1036 AS=0.2072 PD=1.02 PS=1.3
MM5 21 7 11 VSS N18 L=0.18 W=0.74 AD=0.1036 AS=0.2072 PD=1.02 PS=1.3
MM6 21 10 VSS VSS N18 L=0.18 W=0.74 AD=0.1036 AS=0.346129 PD=1.02 PS=2.57806
MM2 7 6 VSS VSS N18 L=0.18 W=0.5 AD=0.245 AS=0.233871 PD=1.98 PS=1.74194
MM15 VSS 6 P VSS N18 L=0.18 W=1.54 AD=0.538672 AS=0.5726 PD=2.79166 PS=4.1
MM19 VSS B 17 VSS N18 L=0.18 W=0.81 AD=0.283328 AS=0.1134 PD=1.46834 PS=1.09
MM20 17 2 6 VSS N18 L=0.18 W=0.81 AD=0.1134 AS=0.2268 PD=1.09 PS=1.37
MM16 6 5 18 VSS N18 L=0.18 W=0.81 AD=0.2268 AS=0.2025 PD=1.37 PS=1.31
MM17 18 A VSS VSS N18 L=0.18 W=0.81 AD=0.2025 AS=0.453223 PD=1.31 PS=2.75023
MM18 5 B VSS VSS N18 L=0.18 W=0.48 AD=0.2352 AS=0.268577 PD=1.94 PS=1.62977
MM13 2 A VSS VSS N18 L=0.18 W=0.45 AD=0.225 AS=0.216629 PD=1.9 PS=1.11176
MM10 noxref_25 CI VSS VSS N18 L=0.18 W=0.91 AD=0.1365 AS=0.438071 PD=1.21
+ PS=2.24824
MM11 noxref_25 7 9 VSS N18 L=0.18 W=0.91 AD=0.1365 AS=0.2548 PD=1.21 PS=1.47
MM12 9 A noxref_26 VSS N18 L=0.18 W=0.91 AD=0.2548 AS=0.1365 PD=1.47 PS=1.21
MM14 noxref_26 B VSS VSS N18 L=0.18 W=0.91 AD=0.1365 AS=0.429427 PD=1.21
+ PS=2.81142
MM9 CO 9 VSS VSS N18 L=0.188039 W=1.18698 AD=0.277441 AS=0.560135 PD=1.69043
+ PS=3.66715
MM8 CO 9 VSS VSS N18 L=0.18 W=1.1 AD=0.257109 AS=0.519088 PD=1.56655 PS=3.39842
MM21 10 CI VDD VDD P18 L=0.18 W=0.65 AD=0.3185 AS=0.3185 PD=2.28 PS=2.28
MM25 S 11 VDD VDD P18 L=0.184797 W=1.61042 AD=0.58375 AS=0.383919 PD=3.96042
+ PS=2.09603
MM24 25 CI VDD VDD P18 L=0.18 W=1.54 AD=0.2156 AS=0.367131 PD=1.82 PS=2.00438
MM26 25 7 11 VDD P18 L=0.18 W=1.54 AD=0.2156 AS=0.343407 PD=1.82 PS=2.0509
MM23 11 6 26 VDD P18 L=0.18533 W=1.53456 AD=0.342193 AS=0.2846 PD=2.04366
+ PS=1.91456
MM27 VDD 10 26 VDD P18 L=0.18533 W=1.53456 AD=0.45952 AS=0.2846 PD=2.91341
+ PS=1.91456
MM22 VDD 6 7 VDD P18 L=0.18 W=0.58 AD=0.17368 AS=0.2842 PD=1.10115 PS=2.14
MM36 P 6 VDD VDD P18 L=0.18 W=1.54 AD=0.8056 AS=0.340166 PD=4.64 PS=1.99889
MM39 VDD B 23 VDD P18 L=0.185066 W=1.61456 AD=0.356634 AS=0.257867 PD=2.09567
+ PS=1.93078
MM38 6 A 23 VDD P18 L=0.184254 W=1.60213 AD=0.399063 AS=0.255883 PD=2.14771
+ PS=1.91592
MM40 24 2 6 VDD P18 L=0.18 W=1.54 AD=0.2156 AS=0.383587 PD=1.82 PS=2.06442
MM37 24 5 VDD VDD P18 L=0.18 W=1.54 AD=0.2156 AS=0.7152 PD=1.82 PS=4.76
MM35 VDD B 5 VDD P18 L=0.18 W=0.55 AD=0.459 AS=0.2695 PD=2.7 PS=2.08
MM34 VDD A 2 VDD P18 L=0.18 W=0.55 AD=0.459 AS=0.2695 PD=2.7 PS=2.08
MM32 VDD A noxref_14 VDD P18 L=0.18 W=1.17 AD=1.0638 AS=0.261663 PD=5.04
+ PS=1.62549
MM30 9 CI noxref_14 VDD P18 L=0.186572 W=1.24456 AD=0.277409 AS=0.278337
+ PD=1.72907 PS=1.72907
MM31 9 7 noxref_14 VDD P18 L=0.18 W=1.17 AD=0.260791 AS=0.266029 PD=1.62549
+ PS=1.6484
MM33 noxref_14 B VDD VDD P18 L=0.186175 W=1.32456 AD=0.301171 AS=0.567992
+ PD=1.86616 PS=3.63787
MM29 CO 9 VDD VDD P18 L=0.186368 W=1.28456 AD=0.284043 AS=0.55084 PD=1.76861
+ PS=3.52801
MM28 CO 9 VDD VDD P18 L=0.18 W=1.21 AD=0.267557 AS=0.518868 PD=1.66595
+ PS=3.32324
c_19 CI 0 1.04712f
c_31 VDD 0 1.22846f
c_44 VSS 0 1.04685f
c_54 10 0 0.180424f
c_58 S 0 0.0538402f
c_68 11 0 0.167335f
c_84 7 0 0.450556f
c_90 P 0 0.0349041f
c_104 6 0 0.873527f
c_114 2 0 0.227213f
c_124 5 0 0.149546f
c_137 B 0 1.00406f
c_148 A 0 1.26f
c_164 9 0 0.33039f
c_168 CO 0 0.0247889f
*
.include "adp1d2.sp.adp1d2.pxi"
*
.ends
*
*
* File: ah01d0.sp
* Created: Sun Feb 14 18:52:09 2010
* Program "Calibre xRC"
* Version "v2008.2_11.12"
* 
.options scale=1u
.SUBCKT ah01d0 CO S  A B VDD VSS

* 
MM7 2 A 10 VSS N18 L=0.18 W=0.82 AD=0.4018 AS=0.1804 PD=2.62 PS=1.26
MM4 VSS B 10 VSS N18 L=0.18 W=0.82 AD=0.2952 AS=0.1804 PD=1.54 PS=1.26
MM3 noxref_10 B VSS VSS N18 L=0.18 W=0.82 AD=0.347975 AS=0.2952 PD=2.10635
+ PS=1.54
MM5 5 2 noxref_10 VSS N18 L=0.18 W=0.72 AD=0.3528 AS=0.305539 PD=2.42
+ PS=1.84948
MM6 noxref_10 A VSS VSS N18 L=0.18 W=0.57 AD=0.241885 AS=0.2793 PD=1.46417
+ PS=2.12
MM1 S 5 VSS VSS N18 L=0.18 W=0.5 AD=0.245 AS=0.14 PD=1.98 PS=1.06
MM2 CO 2 VSS VSS N18 L=0.18 W=0.5 AD=0.245 AS=0.14 PD=1.98 PS=1.06
MM9 VDD A 2 VDD P18 L=0.18 W=0.57 AD=0.252 AS=0.2793 PD=1.93 PS=2.12
MM8 VDD B 2 VDD P18 L=0.18 W=0.57 AD=0.252 AS=0.3705 PD=1.93 PS=2.44
MM14 VDD 2 5 VDD P18 L=0.18 W=0.57 AD=0.234467 AS=0.2793 PD=1.25333 PS=2.12
MM12 VDD B noxref_11 VDD P18 L=0.18 W=1.14 AD=0.468933 AS=0.1596 PD=2.50667
+ PS=1.42
MM13 5 A noxref_11 VDD P18 L=0.18 W=1.14 AD=0.5586 AS=0.1596 PD=3.26 PS=1.42
MM10 VDD 5 S VDD P18 L=0.18 W=0.72 AD=0.2016 AS=0.3528 PD=1.28 PS=2.42
MM11 VDD 2 CO VDD P18 L=0.18 W=0.72 AD=0.2016 AS=0.3528 PD=1.28 PS=2.42
c_8 2 0 0.692621f
c_15 A 0 0.616873f
c_23 VDD 0 0.711081f
c_29 B 0 0.500446f
c_38 5 0 0.360098f
c_46 VSS 0 0.673336f
c_53 S 0 0.0450004f
c_59 CO 0 0.0982963f
*
.include "ah01d0.sp.ah01d0.pxi"
*
.ends
*
*
* File: ah01d1.sp
* Created: Sun Feb 14 18:52:17 2010
* Program "Calibre xRC"
* Version "v2008.2_11.12"
* 
.options scale=1u
.SUBCKT ah01d1 CO S  A B VDD VSS

* 
MM6 2 A 10 VSS N18 L=0.18 W=0.82 AD=0.4018 AS=0.1148 PD=2.62 PS=1.1
MM4 VSS B 10 VSS N18 L=0.18 W=0.82 AD=0.2296 AS=0.1148 PD=1.38 PS=1.1
MM3 VSS B noxref_10 VSS N18 L=0.18 W=0.82 AD=0.2296 AS=0.317118 PD=1.38
+ PS=1.99754
MM7 5 2 noxref_10 VSS N18 L=0.18 W=0.72 AD=0.3528 AS=0.278445 PD=2.42
+ PS=1.75393
MM5 noxref_10 A VSS VSS N18 L=0.18 W=0.57 AD=0.220436 AS=0.2793 PD=1.38853
+ PS=2.12
MM1 S 5 VSS VSS N18 L=0.18 W=0.95 AD=0.4655 AS=0.266 PD=2.88 PS=1.51
MM2 CO 2 VSS VSS N18 L=0.18 W=0.95 AD=0.4655 AS=0.266 PD=2.88 PS=1.51
MM9 VDD A 2 VDD P18 L=0.18 W=0.57 AD=0.3037 AS=0.2793 PD=1.97 PS=2.12
MM8 VDD B 2 VDD P18 L=0.18 W=0.57 AD=0.3037 AS=0.2793 PD=1.97 PS=2.12
MM14 VDD 2 5 VDD P18 L=0.18 W=0.57 AD=0.2052 AS=0.2793 PD=1.15333 PS=2.12
MM12 VDD B noxref_11 VDD P18 L=0.18 W=1.14 AD=0.4104 AS=0.1596 PD=2.30667
+ PS=1.42
MM13 5 A noxref_11 VDD P18 L=0.18 W=1.14 AD=0.5586 AS=0.1596 PD=3.26 PS=1.42
MM10 S 5 VDD VDD P18 L=0.185149 W=1.50042 AD=0.57065 AS=0.375186 PD=3.74042
+ PS=2.04191
MM11 CO 2 VDD VDD P18 L=0.184568 W=1.49213 AD=0.58745 AS=0.373114 PD=3.75213
+ PS=2.03064
c_8 2 0 0.635442f
c_16 VDD 0 0.547994f
c_23 A 0 0.572393f
c_30 B 0 0.467152f
c_38 VSS 0 0.56484f
c_47 5 0 0.333499f
c_54 S 0 0.041692f
c_60 CO 0 0.147737f
*
.include "ah01d1.sp.ah01d1.pxi"
*
.ends
*
*
* File: ah01d2.sp
* Created: Sun Feb 14 18:52:25 2010
* Program "Calibre xRC"
* Version "v2008.2_11.12"
* 
.options scale=1u
.SUBCKT ah01d2 CO S  A B VDD VSS

* 
MM8 2 A 10 VSS N18 L=0.18 W=0.82 AD=0.4018 AS=0.246 PD=2.62 PS=1.42
MM6 VSS B 10 VSS N18 L=0.18 W=0.82 AD=0.2296 AS=0.246 PD=1.38 PS=1.42
MM5 noxref_10 B VSS VSS N18 L=0.18 W=0.82 AD=0.304449 AS=0.2296 PD=2.09081
+ PS=1.38
MM9 noxref_10 2 5 VSS N18 L=0.18 W=0.72 AD=0.267321 AS=0.3528 PD=1.83583
+ PS=2.42
MM7 noxref_10 A VSS VSS N18 L=0.18 W=0.57 AD=0.211629 AS=0.2793 PD=1.45336
+ PS=2.12
MM2 VSS 5 S VSS N18 L=0.18 W=0.95 AD=0.4655 AS=0.266 PD=2.88 PS=1.51
MM1 VSS 5 S VSS N18 L=0.18 W=0.95 AD=0.266 AS=0.266 PD=1.51 PS=1.51
MM4 VSS 2 CO VSS N18 L=0.18 W=0.95 AD=0.266 AS=0.266 PD=1.51 PS=1.51
MM3 VSS 2 CO VSS N18 L=0.18 W=0.95 AD=0.4655 AS=0.266 PD=2.88 PS=1.51
MM11 VDD A 2 VDD P18 L=0.18 W=0.57 AD=0.3082 AS=0.2793 PD=1.89 PS=2.12
MM10 VDD B 2 VDD P18 L=0.18 W=0.57 AD=0.3082 AS=0.2793 PD=1.89 PS=2.12
MM18 VDD 2 5 VDD P18 L=0.18 W=0.57 AD=0.196133 AS=0.2793 PD=1.15333 PS=2.12
MM16 VDD B noxref_11 VDD P18 L=0.18 W=1.14 AD=0.392267 AS=0.1596 PD=2.30667
+ PS=1.42
MM17 noxref_11 A 5 VDD P18 L=0.18 W=1.14 AD=0.1596 AS=0.627 PD=1.42 PS=3.38
MM13 VDD 5 S VDD P18 L=0.185149 W=1.50042 AD=0.59785 AS=0.327766 PD=3.74042
+ PS=1.98683
MM12 VDD 5 S VDD P18 L=0.18 W=1.43 AD=0.336722 AS=0.312384 PD=1.88806
+ PS=1.89359
MM15 CO 2 VDD VDD P18 L=0.185436 W=1.50456 AD=0.323824 AS=0.354278 PD=1.9865
+ PS=1.9865
MM14 CO 2 VDD VDD P18 L=0.18 W=1.43 AD=0.307776 AS=0.7007 PD=1.88806 PS=3.84
c_8 2 0 0.910416f
c_16 VDD 0 0.676651f
c_22 A 0 0.633514f
c_30 VSS 0 0.772544f
c_36 B 0 0.461009f
c_45 5 0 0.466073f
c_51 S 0 0.0377904f
c_57 CO 0 0.0416549f
*
.include "ah01d2.sp.ah01d2.pxi"
*
.ends
*
*
* File: an02d0.sp
* Created: Sun Feb 14 18:52:33 2010
* Program "Calibre xRC"
* Version "v2008.2_11.12"
* 
.options scale=1u
.SUBCKT an02d0 Z  A1 A2 VDD VSS

* 
MM1 7 A1 3 VSS N18 L=0.18 W=0.88 AD=0.132 AS=0.4312 PD=1.18 PS=2.74
MM3 7 A2 VSS VSS N18 L=0.18 W=0.88 AD=0.132 AS=0.484383 PD=1.18 PS=2.67826
MM2 VSS 3 Z VSS N18 L=0.18 W=0.5 AD=0.275217 AS=0.4614 PD=1.52174 PS=2.98
MM4 VDD A1 3 VDD P18 L=0.18 W=0.88 AD=0.7456 AS=0.2464 PD=5.2 PS=1.44
MM6 VDD A2 3 VDD P18 L=0.18 W=0.88 AD=0.547556 AS=0.2464 PD=3.19407 PS=1.44
MM5 VDD 3 Z VDD P18 L=0.18 W=0.74 AD=0.460444 AS=0.4514 PD=2.68593 PS=2.7
c_7 3 0 0.194761f
c_12 VDD 0 0.325918f
c_17 VSS 0 0.314846f
c_22 A1 0 0.217435f
c_28 A2 0 0.137068f
c_33 Z 0 0.176242f
*
.include "an02d0.sp.an02d0.pxi"
*
.ends
*
*
* File: an02d1.sp
* Created: Sun Feb 14 18:52:40 2010
* Program "Calibre xRC"
* Version "v2008.2_11.12"
* 
.options scale=1u
.SUBCKT an02d1 Z  A1 A2 VDD VSS

* 
MM1 7 A1 3 VSS N18 L=0.18 W=0.88 AD=0.132 AS=0.4312 PD=1.18 PS=2.74
MM3 7 A2 VSS VSS N18 L=0.18 W=0.88 AD=0.132 AS=0.378962 PD=1.18 PS=1.96596
MM2 Z 3 VSS VSS N18 L=0.18 W=1 AD=0.57 AS=0.430638 PD=3.14 PS=2.23404
MM4 VDD A1 3 VDD P18 L=0.18 W=0.88 AD=0.5524 AS=0.2464 PD=4.28 PS=1.44
MM6 VDD A2 3 VDD P18 L=0.18 W=0.88 AD=0.27459 AS=0.2464 PD=1.67051 PS=1.44
MM5 VDD 3 Z VDD P18 L=0.18 W=1.48 AD=0.46181 AS=0.9028 PD=2.80949 PS=4.18
c_7 3 0 0.201771f
c_12 VDD 0 0.375097f
c_17 VSS 0 0.31256f
c_22 A1 0 0.217512f
c_28 A2 0 0.132599f
c_33 Z 0 0.159935f
*
.include "an02d1.sp.an02d1.pxi"
*
.ends
*
*
* File: an02d2.sp
* Created: Sun Feb 14 18:52:47 2010
* Program "Calibre xRC"
* Version "v2008.2_11.12"
* 
.options scale=1u
.SUBCKT an02d2 Z  A1 A2 VDD VSS

* 
MM1 7 A1 2 VSS N18 L=0.18 W=0.7 AD=0.098 AS=0.343 PD=0.98 PS=2.38
MM2 VSS A2 7 VSS N18 L=0.18 W=0.7 AD=0.203081 AS=0.098 PD=1.31436 PS=0.98
MM4 Z 2 VSS VSS N18 L=0.187715 W=1.23698 AD=0.351898 AS=0.358869 PD=1.8433
+ PS=2.32263
MM3 Z 2 VSS VSS N18 L=0.18 W=1.15 AD=0.327152 AS=0.5635 PD=1.71368 PS=3.28
MM5 VDD A1 2 VDD P18 L=0.18 W=0.7 AD=0.4912 AS=0.196 PD=3.92 PS=1.26
MM6 VDD A2 2 VDD P18 L=0.18 W=0.7 AD=0.235529 AS=0.196 PD=1.48869 PS=1.26
MM8 VDD 2 Z VDD P18 L=0.18 W=1.51 AD=0.508071 AS=0.480961 PD=3.21131 PS=2.13053
MM7 VDD 2 Z VDD P18 L=0.184888 W=1.58042 AD=0.56565 AS=0.503389 PD=3.90042
+ PS=2.22989
c_5 A1 0 0.249081f
c_12 2 0 0.352523f
c_17 VDD 0 0.443475f
c_22 VSS 0 0.32265f
c_28 A2 0 0.156138f
c_33 Z 0 0.0087431f
*
.include "an02d2.sp.an02d2.pxi"
*
.ends
*
*
* File: an02d4.sp
* Created: Sun Feb 14 18:52:55 2010
* Program "Calibre xRC"
* Version "v2008.2_11.12"
* 
.options scale=1u
.SUBCKT an02d4 Z  A1 A2 VDD VSS

* 
MM1 7 A1 2 VSS N18 L=0.18 W=0.7 AD=0.098 AS=0.343 PD=0.98 PS=2.38
MM2 VSS A2 7 VSS N18 L=0.18 W=0.7 AD=0.208013 AS=0.098 PD=1.32919 PS=0.98
MM5 VSS 2 Z VSS N18 L=0.186047 W=1.50284 AD=0.446587 AS=0.367941 PD=2.85366
+ PS=1.99645
MM4 VSS 2 Z VSS N18 L=0.18 W=1.42 AD=0.360678 AS=0.347659 PD=2.01672 PS=1.8864
MM3 VSS 2 Z VSS N18 L=0.186332 W=1.50698 AD=0.382772 AS=0.63815 PD=2.14026
+ PS=3.77698
MM6 2 A1 VDD VDD P18 L=0.184959 W=1.46627 AD=0.346225 AS=0.55 PD=1.95737
+ PS=3.68627
MM7 2 A2 VDD VDD P18 L=0.18 W=1.4 AD=0.330575 AS=0.354591 PD=1.8689 PS=2.04251
MM10 VDD 2 Z VDD P18 L=0.183962 W=2.06456 AD=0.522909 AS=0.495039 PD=3.01205
+ PS=2.5432
MM9 VDD 2 Z VDD P18 L=0.18 W=1.99 AD=0.430338 AS=0.477161 PD=2.45136 PS=2.45136
MM8 VDD 2 Z VDD P18 L=0.183962 W=2.06456 AD=0.446462 AS=0.8528 PD=2.5432
+ PS=4.87456
c_5 A1 0 0.242647f
c_12 2 0 0.393473f
c_17 VDD 0 0.403294f
c_22 VSS 0 0.355239f
c_28 A2 0 0.152224f
c_33 Z 0 0.0618479f
*
.include "an02d4.sp.an02d4.pxi"
*
.ends
*
*
* File: an03d0.sp
* Created: Sun Feb 14 18:53:03 2010
* Program "Calibre xRC"
* Version "v2008.2_11.12"
* 
.options scale=1u
.SUBCKT an03d0 Z  A1 A2 A3 VDD VSS

* 
MM1 3 A1 9 VSS N18 L=0.18 W=0.8 AD=0.392 AS=0.136 PD=2.58 PS=1.14
MM2 8 A2 9 VSS N18 L=0.18 W=0.8 AD=0.136 AS=0.136 PD=1.14 PS=1.14
MM4 VSS A3 8 VSS N18 L=0.18 W=0.8 AD=0.375775 AS=0.136 PD=2.10704 PS=1.14
MM3 VSS 3 Z VSS N18 L=0.18 W=0.62 AD=0.291225 AS=0.3534 PD=1.63296 PS=2.38
MM5 3 A1 VDD VDD P18 L=0.18 W=0.78 AD=0.3822 AS=0.3756 PD=2.54 PS=2.62
MM6 3 A2 VDD VDD P18 L=0.18 W=0.78 AD=0.2184 AS=0.3756 PD=1.34 PS=2.62
MM8 3 A3 VDD VDD P18 L=0.18 W=0.78 AD=0.2184 AS=0.33287 PD=1.34 PS=2.44541
MM7 VDD 3 Z VDD P18 L=0.18 W=0.7 AD=0.29873 AS=0.583 PD=2.19459 PS=3.92
c_6 A1 0 0.265886f
c_15 3 0 0.181279f
c_21 VSS 0 0.35908f
c_27 VDD 0 0.356992f
c_33 A2 0 0.167216f
c_40 A3 0 0.199029f
c_45 Z 0 0.175679f
*
.include "an03d0.sp.an03d0.pxi"
*
.ends
*
*
* File: an03d1.sp
* Created: Sun Feb 14 18:53:10 2010
* Program "Calibre xRC"
* Version "v2008.2_11.12"
* 
.options scale=1u
.SUBCKT an03d1 Z  A1 A2 A3 VDD VSS

* 
MM1 3 A1 9 VSS N18 L=0.18 W=0.8 AD=0.392 AS=0.136 PD=2.58 PS=1.14
MM2 8 A2 9 VSS N18 L=0.18 W=0.8 AD=0.136 AS=0.136 PD=1.14 PS=1.14
MM4 VSS A3 8 VSS N18 L=0.18 W=0.8 AD=0.331793 AS=0.136 PD=1.59529 PS=1.14
MM3 VSS 3 Z VSS N18 L=0.185401 W=1.26213 AD=0.523457 AS=0.49575 PD=2.51684
+ PS=3.29213
MM5 3 A1 VDD VDD P18 L=0.18 W=0.78 AD=0.3822 AS=0.3672 PD=2.54 PS=2.58
MM6 3 A2 VDD VDD P18 L=0.18 W=0.78 AD=0.2184 AS=0.3672 PD=1.34 PS=2.58
MM8 3 A3 VDD VDD P18 L=0.18 W=0.78 AD=0.2184 AS=0.234325 PD=1.34 PS=1.4896
MM7 VDD 3 Z VDD P18 L=0.185363 W=1.44042 AD=0.432725 AS=0.53785 PD=2.75082
+ PS=3.62042
c_6 A1 0 0.261136f
c_15 3 0 0.181157f
c_20 VDD 0 0.361904f
c_26 VSS 0 0.33216f
c_32 A2 0 0.17405f
c_38 A3 0 0.198314f
c_41 Z 0 0.138076f
*
.include "an03d1.sp.an03d1.pxi"
*
.ends
*
*
* File: an03d2.sp
* Created: Sun Feb 14 18:53:17 2010
* Program "Calibre xRC"
* Version "v2008.2_11.12"
* 
.options scale=1u
.SUBCKT an03d2 Z  A1 A2 A3 VDD VSS

* 
MM2 3 A1 9 VSS N18 L=0.18 W=0.8 AD=0.392 AS=0.136 PD=2.58 PS=1.14
MM1 8 A2 9 VSS N18 L=0.18 W=0.8 AD=0.136 AS=0.136 PD=1.14 PS=1.14
MM5 VSS A3 8 VSS N18 L=0.18 W=0.8 AD=0.325 AS=0.136 PD=1.552 PS=1.14
MM4 VSS 3 Z VSS N18 L=0.18 W=1.2 AD=0.4875 AS=0.273986 PD=2.328 PS=1.66146