* File: pc3d01u.dist.sp.pex
* Created: Sun Jul  4 12:27:46 2010
* Program "Calibre xRC"
* Version "v2008.4_19.14"
* Nominal Temperature: 27C
* Circuit Temperature: 27C
* 
.subckt PM_PC3D01U%U14_padr 12 62 68 76 138 140 142 189
c0 258 0 9.32193f
c1 253 0 15.7174f
c2 243 0 5.64073f
c3 241 0 0.501133f
c4 239 0 0.0674659f
c5 238 0 0.207306f
c6 237 0 0.394066f
c7 230 0 15.9511f
c8 218 0 1.19222f
c9 213 0 1.72848f
c10 204 0 1.83699f
c11 198 0 0.596936f
c12 194 0 2.44521f
c13 193 0 0.261126f
c14 190 0 0.703354f
c15 189 0 0.846569f
c16 164 0 0.093022f
c17 158 0 0.0843457f
c18 150 0 15.9479f
c19 142 0 1.12826f
c20 140 0 0.570103f
c21 138 0 1.02293f
c22 108 0 0.400805f
c23 105 0 0.385796f
c24 104 0 0.371891f
c25 102 0 0.40312f
c26 98 0 0.421448f
c27 95 0 0.435871f
c28 92 0 0.226943f
c29 91 0 0.0197099f
c30 90 0 0.0742893f
c31 88 0 0.0473382f
c32 87 0 0.0694581f
c33 86 0 0.0828224f
c34 82 0 0.302114f
c35 80 0 0.0329814f
c36 79 0 0.0954138f
c37 76 0 1.27015f
c38 73 0 0.0687863f
c39 72 0 0.372728f
c40 68 0 2.00207f
c41 66 0 0.54906f
c42 62 0 2.30824f
c43 21 0 0.117916f
c44 20 0 0.033825f
c45 19 0 0.0510441f
c46 18 0 0.0886803f
c47 16 0 5.29399f
c48 12 0 1.07645f
r49 249 251 3.984 
r50 258 243 0.185079 
r51 241 243 1.2 
r52 240 241 0.482857 
r53 238 240 0.0446983 
r54 238 239 0.125714 
r55 237 239 0.0446983 
r56 232 253 6 
r57 230 232 0.172857 
r58 223 224 6 
r59 220 253 9.58133 
r60 251 220 1.412 
r61 218 220 6 
r62 218 223 0.8816 
r63 193 224 0.0840267 
r64 191 193 0.0448127 
r65 191 194 2.62845 
r66 190 258 0.18836 
r67 194 189 0.0773806 
r68 149 150 0.434667 
r69 130 142 168.333 
r70 130 164 3.92502 
r71 125 140 51.6667 
r72 124 125 1.66667 
r73 117 138 168.333 
r74 158 117 3.6393 
r75 213 112 6 
r76 109 216 0.8025 
r77 213 109 2.8475 
r78 109 150 6 
r79 108 164 0.77 
r80 216 108 6 
r81 105 211 1.2525 
r82 105 251 6 
r83 104 158 0.7825 
r84 211 104 6 
r85 204 102 6 
r86 99 207 0.8 
r87 204 99 2.88 
r88 99 149 6 
r89 207 98 6 
r90 95 202 0.482667 
r91 95 249 6 
r92 94 149 3.75467 
r93 202 94 6 
r94 92 112 0.05 
r95 88 98 0.642857 
r96 87 102 0.642857 
r97 86 92 0.0446983 
r98 85 91 0.0338756 
r99 85 86 0.1875 
r100 82 124 1.16667 
r101 81 91 0.0338756 
r102 81 82 0.245 
r103 79 91 0.00880368 
r104 79 80 0.25 
r105 75 80 0.0446983 
r106 75 76 1.2575 
r107 74 76 1.3775 
r108 72 74 0.0447588 
r109 72 73 0.544 
r110 90 68 2.375 
r111 66 90 0.12 
r112 65 88 0.0449572 
r113 65 66 0.8475 
r114 61 87 0.0449572 
r115 61 62 1.4975 
r116 60 73 0.0447588 
r117 60 62 1.3775 
r118 198 23 0.30381 
r119 21 23 3 
r120 20 21 0.109474 
r121 245 19 0.0446983 
r122 20 18 0.0456991 
r123 18 19 0.147143 
r124 245 16 10.3129 
r125 16 230 2 
r126 13 237 0.407619 
r127 13 198 0.0446983 
r128 190 12 0.0147368 
.ends

.subckt PM_PC3D01U%VDDO 824 892 903 914 925 936 947 958 973 1191 1204 1206 1248
+ 1256 1515 1519 1522 1526 1534 1541 1548 1557 1567 1579 1585 1591 1601 1640 1652
+ 1655 1660
c0 1660 0 20.319f
c1 1652 0 46.058f
c2 1636 0 2.98997f
c3 1605 0 9.5721f
c4 1598 0 0.474071f
c5 1591 0 1.72199f
c6 1585 0 2.07811f
c7 1579 0 2.31703f
c8 1576 0 3.35178f
c9 1564 0 0.505082f
c10 1560 0 41.3354f
c11 1559 0 1.97484f
c12 1557 0 62.8661f
c13 1540 0 50.9389f
c14 1531 0 0.696813f
c15 1529 0 1.2453f
c16 1526 0 3.00652f
c17 1519 0 2.4994f
c18 1513 0 0.127329f
c19 1508 0 0.0724239f
c20 1506 0 1.09396f
c21 1499 0 0.330853f
c22 1495 0 0.14958f
c23 1489 0 0.230124f
c24 1481 0 0.332801f
c25 1477 0 0.194107f
c26 1472 0 1.45872f
c27 1470 0 0.988028f
c28 1468 0 0.0714314f
c29 1467 0 0.111846f
c30 1433 0 9.76182f
c31 1271 0 2.66842f
c32 1256 0 0.318703f
c33 1248 0 0.0819925f
c34 1227 0 0.119988f
c35 1222 0 0.39879f
c36 1221 0 0.117317f
c37 1219 0 0.133611f
c38 1217 0 7.76995f
c39 1216 0 8.94688f
c40 1209 0 0.0962101f
c41 1206 0 0.336966f
c42 1204 0 0.670535f
c43 1198 0 0.0301061f
c44 1197 0 0.967804f
c45 1191 0 1.25778f
c46 1120 0 3.63084f
c47 1085 0 5.39118f
c48 1070 0 1.29937f
c49 1066 0 0.615713f
c50 1062 0 8.82846f
c51 1060 0 6.7868f
c52 1058 0 0.588747f
c53 1052 0 0.170971f
c54 1049 0 0.0533066f
c55 1047 0 0.0989764f
c56 973 0 7.73649f
c57 965 0 7.33964f
c58 962 0 11.7156f
c59 951 0 19.4869f
c60 940 0 19.4869f
c61 929 0 19.5155f
c62 918 0 19.4869f
c63 907 0 19.4869f
c64 896 0 11.8398f
c65 849 0 0.210878f
c66 812 0 0.0533066f
c67 801 0 0.12462f
c68 800 0 5.89132f
c69 797 0 0.104443f
c70 796 0 6.15996f
c71 17 0 0.486838f
c72 16 0 6.73322f
c73 7 0 0.152029f
c74 6 0 6.75738f
r75 1655 1658 0.00394881 
r76 1649 1650 0.344532 
r77 1648 1649 0.0712418 
r78 1647 1648 0.0124619 
r79 1646 1647 0.0351634 
r80 1645 1646 0.0234858 
r81 1644 1645 0.0699782 
r82 1638 1652 0.00304139 
r83 1650 1638 0.00174292 
r84 1636 1638 0.461538 
r85 1598 1601 0.0002 
r86 1598 1649 0.666667 
r87 1594 1648 0.545455 
r88 1591 1594 1.4825 
r89 1588 1647 0.545455 
r90 1585 1588 1.63 
r91 1582 1645 0.5 
r92 1579 1582 1.455 
r93 1578 1644 0.00174292 
r94 1640 1578 0.00305011 
r95 1576 1578 0.461538 
r96 1571 1660 0.0039415 
r97 1658 1571 0.467422 
r98 1569 1571 0.5 
r99 1567 1569 0.181 
r100 1564 1567 0.17 
r101 1564 1650 1.5 
r102 1561 1562 0.5433 
r103 1560 1561 0.2247 
r104 1559 1562 0.099 
r105 1555 1557 0.0136564 
r106 1554 1555 0.0314855 
r107 1553 1554 0.0601494 
r108 1552 1553 0.0634357 
r109 1551 1552 0.0334274 
r110 1548 1551 0.01361 
r111 1537 1658 0.5 
r112 1534 1537 0.181 
r113 1531 1534 0.17 
r114 1531 1644 1.5 
r115 1529 1560 0.5293 
r116 1511 1513 0.12 
r117 1501 1504 3 
r118 1605 1501 0.0677429 
r119 1499 1501 3 
r120 1605 1491 0.1116 
r121 1633 1491 0.0028 
r122 1489 1491 6 
r123 1474 1513 0.02 
r124 1471 1511 0.02 
r125 1471 1472 2.92286 
r126 1508 1469 0.0456991 
r127 1469 1470 2.06857 
r128 1467 1470 0.0446983 
r129 1467 1468 0.0971429 
r130 1465 1468 0.0446983 
r131 1465 1506 1.64571 
r132 1433 1633 0.2648 
r133 1432 1633 0.2664 
r134 1431 1633 0.2664 
r135 1264 1481 1 
r136 1254 1495 3 
r137 1251 1254 0.2885 
r138 1251 1477 2 
r139 1248 1251 2.755 
r140 1247 1248 1.8985 
r141 1246 1247 0.425 
r142 1489 1240 0.000149533 
r143 1529 1239 0.0555566 
r144 1239 1240 6 
r145 1238 1504 0.0444444 
r146 1499 1238 7.40741e-05 
r147 1529 1237 0.0279474 
r148 1237 1238 1.5 
r149 1477 1236 0.000233918 
r150 1561 1236 2 
r151 1481 1232 0.000100503 
r152 1562 1232 1 
r153 1495 1230 0.000299625 
r154 1561 1230 3 
r155 1508 1227 6 
r156 1506 1224 0.0557895 
r157 1224 1246 3 
r158 1474 1222 0.787143 
r159 1222 1247 6 
r160 1221 1271 0.0561431 
r161 1472 1221 6 
r162 1256 1219 0.0621053 
r163 1646 1219 2 
r164 1217 1264 0.219259 
r165 1216 1254 0.0845 
r166 1209 1246 0.8885 
r167 1208 1636 0.526 
r168 1208 1217 0.0447005 
r169 1207 1636 2.122 
r170 1207 1216 0.0446983 
r171 1204 1206 0.81913 
r172 1203 1206 0.309565 
r173 1197 1203 0.0446983 
r174 1197 1198 2.21913 
r175 1195 1198 0.0447246 
r176 1195 1271 4.4 
r177 1190 1227 0.0422277 
r178 1190 1191 1.5875 
r179 1186 1576 2.122 
r180 1186 1209 0.0446983 
r181 1122 1123 0.490516 
r182 1121 1122 0.232864 
r183 1120 1121 0.279437 
r184 1111 1112 0.279231 
r185 1110 1111 0.2665 
r186 1101 1102 0.273962 
r187 1100 1101 0.261472 
r188 1087 1088 0.278131 
r189 1084 1526 0.0526456 
r190 1522 1084 0.0552365 
r191 1553 1084 0.00227273 
r192 1551 1082 3 
r193 1551 1080 0.666667 
r194 1552 1078 1.5 
r195 1554 1076 1.5 
r196 1555 1074 3 
r197 1555 1072 3 
r198 1555 1070 2 
r199 1068 1519 0.0620926 
r200 1515 1068 0.0688218 
r201 1546 1068 0.0025 
r202 1062 1100 3.77358e-05 
r203 1060 1110 3.84615e-05 
r204 1052 1120 0.117559 
r205 1051 1052 0.119812 
r206 1051 1058 0.181784 
r207 1050 1072 0.0101408 
r208 1049 1070 0.122066 
r209 1048 1085 0.0616822 
r210 1047 1048 0.08 
r211 1047 1066 0.274084 
r212 976 978 0.0829907 
r213 976 1123 0.1 
r214 978 973 0.159252 
r215 973 985 0.159252 
r216 973 976 0.0291589 
r217 965 973 0.159252 
r218 962 1076 1.5 
r219 958 962 0.793846 
r220 955 958 0.842637 
r221 955 1078 1.5 
r222 947 951 0.55145 
r223 944 947 0.585344 
r224 936 940 0.55145 
r225 933 936 0.585344 
r226 925 929 0.55145 
r227 922 925 0.585344 
r228 918 1112 1.5 
r229 914 918 0.55145 
r230 911 914 0.585344 
r231 911 1102 1.5 
r232 907 1111 1.5 
r233 903 907 0.55145 
r234 900 903 0.585344 
r235 900 1101 1.5 
r236 896 1110 1.5 
r237 892 896 0.793846 
r238 889 892 0.842637 
r239 889 1100 1.5 
r240 884 1092 0.2 
r241 973 884 0.0391734 
r242 867 1087 0.185047 
r243 1085 867 0.0930841 
r244 865 867 0.2 
r245 865 973 0.0397569 
r246 855 1080 0.231776 
r247 1092 855 0.232523 
r248 1551 855 1 
r249 944 853 1.5 
r250 853 1078 0.261509 
r251 1552 853 1.5 
r252 951 851 1.5 
r253 851 1076 0.266538 
r254 1554 851 1.5 
r255 1555 849 1 
r256 847 1092 0.231028 
r257 1082 847 0.278131 
r258 1551 847 0.6 
r259 933 845 1.5 
r260 845 853 0.273962 
r261 1552 845 1.5 
r262 940 843 1.5 
r263 843 851 0.279231 
r264 1554 843 1.5 
r265 841 1072 0.279437 
r266 1074 841 0.279437 
r267 1555 841 0.6 
r268 839 1082 0.139065 
r269 1088 839 0.683365 
r270 1551 839 2 
r271 922 837 1.5 
r272 837 845 0.273962 
r273 1102 837 0.273962 
r274 1552 837 1.5 
r275 929 835 1.5 
r276 835 843 0.279231 
r277 1112 835 0.279231 
r278 1554 835 1.5 
r279 833 1074 0.232864 
r280 1123 833 0.139343 
r281 1555 833 0.857143 
r282 830 1087 2 
r283 830 1085 0.666667 
r284 830 1066 0.666667 
r285 1541 830 0.0165962 
r286 830 1088 0.666667 
r287 828 1101 1.5 
r288 828 1062 1.5 
r289 828 1546 0.0805639 
r290 830 828 0.0404834 
r291 828 1102 1.5 
r292 826 1111 1.5 
r293 826 1060 1.5 
r294 1540 826 0.0330312 
r295 1546 826 0.0694058 
r296 826 1112 1.5 
r297 824 1121 3 
r298 824 1120 0.666667 
r299 824 1058 0.6 
r300 824 1559 0.0532592 
r301 824 1540 0.0241042 
r302 824 1122 0.666667 
r303 814 849 0.0239252 
r304 814 1049 0.04 
r305 812 849 0.135327 
r306 812 1050 0.04 
r307 807 985 0.73271 
r308 806 965 0.737944 
r309 805 973 0.73271 
r310 804 973 0.737944 
r311 801 805 0.0451326 
r312 801 973 2.504 
r313 800 807 0.0451326 
r314 800 973 2.44889 
r315 797 804 0.045921 
r316 797 973 2.687 
r317 796 806 0.045921 
r318 796 973 2.885 
r319 17 1633 1.51848 
r320 16 1433 0.0447329 
r321 16 1633 1.51162 
r322 15 1501 0.0737243 
r323 15 17 0.0447329 
r324 1432 7 0.0447329 
r325 7 1633 1.51848 
r326 6 1431 0.0447329 
r327 6 1633 1.51162 
.ends

.subckt PM_PC3D01U%net_m1_VSSO_res 27 34
c0 35 0 0.694974f
c1 29 0 0.872192f
c2 27 0 0.734443f
c3 21 0 0.0628173f
c4 20 0 0.287796f
c5 19 0 0.0527767f
c6 18 0 1.2691f
c7 17 0 0.848413f
r8 29 35 2.46349 
r9 29 34 1.8 
r10 26 27 1.17043 
r11 22 35 0.596923 
r12 20 22 0.0472932 
r13 20 21 0.351765 
r14 18 26 0.0468981 
r15 18 19 2.02471 
r16 17 21 0.0446983 
r17 16 19 0.0446983 
r18 16 17 1.4 
.ends

.subckt PM_PC3D01U%VSS 657 816 887 909 961 973 976 982
c0 982 0 88.7562f
c1 973 0 47.5449f
c2 960 0 54.7292f
c3 958 0 2.3768f
c4 945 0 1.21678f
c5 926 0 2.40161f
c6 920 0 12.3651f
c7 919 0 1.77829f
c8 906 0 1.88751f
c9 898 0 14.8899f
c10 884 0 1.45648f
c11 881 0 2.50616f
c12 844 0 25.3375f
c13 831 0 0.0691108f
c14 830 0 0.0657389f
c15 829 0 6.02282f
c16 828 0 0.745402f
c17 827 0 0.269279f
c18 824 0 0.0372194f
c19 816 0 2.07055f
c20 814 0 6.63754f
c21 813 0 0.218207f
c22 811 0 0.69473f
c23 804 0 8.61341f
c24 801 0 0.255493f
c25 800 0 0.0856199f
c26 799 0 1.18476f
c27 695 0 1.98507f
c28 687 0 1.40824f
c29 685 0 0.184759f
c30 683 0 0.271526f
c31 680 0 24.7575f
c32 675 0 1.0863f
c33 674 0 6.52093f
c34 668 0 2.03682f
c35 664 0 0.135881f
c36 663 0 2.4667f
c37 662 0 0.117466f
c38 661 0 2.25879f
c39 657 0 0.00279637f
c40 573 0 0.162892f
c41 571 0 0.72248f
c42 569 0 0.203897f
c43 544 0 2.94311f
c44 530 0 3.05953f
c45 528 0 0.031054f
c46 524 0 6.24623f
c47 523 0 0.161087f
c48 508 0 5.68764f
c49 505 0 3.2536f
r50 980 982 0.000702051 
r51 979 980 0.0832563 
r52 976 979 0.000703354 
r53 972 973 0.00318245 
r54 969 970 0.167059 
r55 968 969 0.0871386 
r56 967 968 0.0414357 
r57 966 967 0.0141176 
r58 965 966 0.00135593 
r59 958 972 0.461538 
r60 952 969 0.0535714 
r61 950 967 1.5 
r62 950 952 1.612 
r63 945 948 0.045 
r64 945 968 0.666667 
r65 926 965 0.6 
r66 924 960 0.0297924 
r67 924 926 3.23529 
r68 919 960 0.0158586 
r69 919 920 1.0295 
r70 913 972 0.00119641 
r71 970 913 0.110269 
r72 911 913 0.428571 
r73 909 911 0.189 
r74 906 909 0.013 
r75 906 980 0.131579 
r76 902 903 0.570964 
r77 901 902 1.12284 
r78 898 901 0.628223 
r79 898 970 0.3 
r80 891 965 0.0882951 
r81 961 891 0.00438684 
r82 889 891 0.428571 
r83 887 889 0.189 
r84 884 887 0.013 
r85 884 979 0.131579 
r86 954 881 1 
r87 843 878 0.02 
r88 843 844 0.9662 
r89 829 952 2.7305 
r90 829 830 0.0338756 
r91 824 950 1.283 
r92 823 831 0.0338756 
r93 822 830 0.0338756 
r94 819 831 0.00880368 
r95 818 830 0.00880368 
r96 816 873 2.59036 
r97 954 816 1.07807 
r98 819 816 0.88 
r99 818 816 1.064 
r100 815 960 0.0158586 
r101 815 816 1.9975 
r102 814 831 0.0338756 
r103 827 813 0.0632911 
r104 813 811 0.0574488 
r105 810 824 0.0448201 
r106 807 958 1.518 
r107 806 958 0.426 
r108 804 873 1.08482 
r109 801 954 1.06072 
r110 800 920 0.0425 
r111 799 800 0.0448201 
r112 799 810 2.13041 
r113 814 697 0.592 
r114 816 697 1.93 
r115 695 866 3 
r116 866 687 0.29193 
r117 902 687 1.5 
r118 697 685 3 
r119 901 685 3 
r120 683 873 3 
r121 903 683 3 
r122 680 895 1.1314 
r123 680 966 0.125 
r124 679 881 0.0075 
r125 878 679 0.056 
r126 895 679 0.24 
r127 677 828 0.102486 
r128 677 827 0.0155975 
r129 844 677 1 
r130 675 823 0.6415 
r131 807 675 0.0446983 
r132 674 822 0.6415 
r133 806 674 0.0446983 
r134 673 695 0.831219 
r135 672 695 0.572683 
r136 667 668 1.37048 
r137 664 673 0.0448242 
r138 664 665 0.678222 
r139 663 668 0.0447675 
r140 663 665 0.650667 
r141 662 672 0.0446983 
r142 661 667 0.0447067 
r143 661 662 1.45854 
r144 948 657 0.31875 
r145 572 573 0.147619 
r146 568 569 0.14988 
r147 804 568 0.0380723 
r148 565 567 0.143333 
r149 801 564 0.0385542 
r150 562 564 0.14506 
r151 816 561 0.159 
r152 544 816 0.159 
r153 543 573 0.02 
r154 543 561 1.247 
r155 542 569 0.02 
r156 542 544 1.243 
r157 816 541 0.192 
r158 539 816 0.192 
r159 538 539 0.342 
r160 816 538 0.192 
r161 536 816 0.192 
r162 535 536 0.342 
r163 816 535 0.192 
r164 533 816 0.192 
r165 532 533 0.342 
r166 816 532 0.192 
r167 530 816 0.192 
r168 529 572 0.02 
r169 529 541 1.214 
r170 528 571 0.04 
r171 528 530 0.243 
r172 526 568 0.02 
r173 526 571 0.938734 
r174 524 572 0.0380952 
r175 524 828 4.80524 
r176 523 811 0.555238 
r177 523 567 0.0380952 
r178 816 519 0.159 
r179 517 816 0.159 
r180 516 517 0.408 
r181 816 516 0.159 
r182 514 816 0.159 
r183 513 514 0.408 
r184 816 513 0.159 
r185 511 816 0.159 
r186 510 511 0.408 
r187 816 510 0.159 
r188 508 816 0.159 
r189 507 567 0.02 
r190 507 519 1.247 
r191 506 564 0.02 
r192 506 508 1.243 
r193 505 565 0.02 
r194 504 562 0.02 
r195 504 505 4.69271 
.ends

.subckt PM_PC3D01U%U14_MN4$11_gate 98 103 219 224 340 345 410 415 420 425 430
+ 435 449
c0 612 0 0.264624f
c1 608 0 0.432377f
c2 603 0 0.431723f
c3 598 0 0.431999f
c4 593 0 0.433563f
c5 588 0 0.434391f
c6 576 0 2.53433f
c7 572 0 0.236421f
c8 554 0 0.0501222f
c9 550 0 0.126441f
c10 548 0 1.09628f
c11 543 0 1.10468f
c12 538 0 1.09628f
c13 533 0 1.12251f
c14 529 0 0.847498f
c15 523 0 0.859973f
c16 521 0 0.170165f
c17 519 0 0.402049f
c18 516 0 0.430085f
c19 515 0 0.863899f
c20 514 0 0.804241f
c21 513 0 0.877326f
c22 511 0 0.872867f
c23 505 0 0.156445f
c24 504 0 8.9327f
c25 501 0 7.03755f
c26 499 0 0.14249f
c27 498 0 0.267597f
c28 496 0 0.474738f
c29 492 0 15.6283f
c30 487 0 1.41515f
c31 485 0 0.126896f
c32 480 0 0.113594f
c33 474 0 0.680018f
c34 473 0 0.0631592f
c35 464 0 0.535213f
c36 456 0 0.535717f
c37 450 0 0.300832f
c38 449 0 0.233998f
c39 442 0 0.16744f
c40 441 0 0.607864f
c41 440 0 0.168715f
c42 439 0 0.608092f
c43 438 0 0.169627f
c44 437 0 0.540411f
c45 435 0 3.10111f
c46 430 0 3.04886f
c47 425 0 3.04886f
c48 420 0 3.04886f
c49 415 0 3.04886f
c50 410 0 3.10222f
c51 357 0 0.974632f
c52 345 0 3.04886f
c53 344 0 0.168601f
c54 340 0 3.04886f
c55 339 0 0.169285f
c56 236 0 0.971967f
c57 224 0 3.04886f
c58 223 0 0.168289f
c59 219 0 3.04886f
c60 218 0 0.169346f
c61 115 0 0.975149f
c62 103 0 3.04886f
c63 102 0 0.169399f
c64 98 0 3.04886f
c65 97 0 0.169627f
r66 570 572 6 
r67 556 612 0.00341463 
r68 554 556 3 
r69 554 558 0.0138182 
r70 550 552 0.102703 
r71 547 608 0.00439024 
r72 605 547 0.0512195 
r73 545 547 1.5 
r74 545 548 0.117757 
r75 542 603 0.00195122 
r76 600 542 0.0536585 
r77 540 542 1.5 
r78 540 543 0.118253 
r79 537 598 0.000487805 
r80 595 537 0.055122 
r81 535 537 1.5 
r82 535 538 0.11974 
r83 531 593 0.00292683 
r84 590 531 0.0526829 
r85 529 531 1.5 
r86 529 533 0.0678788 
r87 525 588 0.00536585 
r88 585 525 0.0502439 
r89 523 525 1.5 
r90 523 527 0.0693333 
r91 558 521 0.0697717 
r92 554 519 0.0138182 
r93 518 519 0.141735 
r94 517 550 0.02 
r95 516 521 0.0586021 
r96 516 517 0.36 
r97 545 515 0.0999055 
r98 514 552 0.02 
r99 514 515 1.035 
r100 540 513 0.100897 
r101 548 513 1.437 
r102 535 511 0.0989138 
r103 543 511 1.448 
r104 509 533 0.0200093 
r105 538 509 1.437 
r106 507 527 0.02 
r107 533 507 1.472 
r108 504 518 0.0586021 
r109 504 505 10.913 
r110 501 572 6 
r111 499 501 3.75099 
r112 581 498 0.0521951 
r113 496 498 3 
r114 495 499 0.0509474 
r115 495 496 0.00866667 
r116 494 505 0.0610788 
r117 494 496 0.142 
r118 570 492 15.6586 
r119 490 492 6 
r120 487 490 1.388 
r121 487 576 6 
r122 484 576 3.376 
r123 480 485 0.0933197 
r124 473 484 0.0447517 
r125 485 473 0.157176 
r126 480 449 0.0666667 
r127 442 474 1.85294 
r128 441 464 5.05882 
r129 440 464 5.05882 
r130 439 456 5.05882 
r131 438 456 5.05882 
r132 437 450 1.85294 
r133 432 442 3.88985 
r134 432 435 183.96 
r135 427 441 3.88985 
r136 427 430 183.96 
r137 422 440 3.88985 
r138 422 425 183.96 
r139 417 439 3.88985 
r140 417 420 183.96 
r141 412 438 3.88985 
r142 412 415 183.96 
r143 407 437 3.88985 
r144 407 410 183.96 
r145 350 357 5.05882 
r146 349 357 5.05882 
r147 344 350 3.88985 
r148 344 345 183.96 
r149 339 349 3.88985 
r150 339 340 183.96 
r151 464 298 0.00142683 
r152 603 298 3 
r153 357 287 0.00133393 
r154 605 287 3 
r155 262 357 0.0278113 
r156 608 262 3 
r157 474 251 0.00142683 
r158 612 251 3 
r159 229 236 5.05882 
r160 228 236 5.05882 
r161 223 229 3.88985 
r162 223 224 183.96 
r163 218 228 3.88985 
r164 218 219 183.96 
r165 456 177 0.00142683 
r166 593 177 3 
r167 236 166 0.00133393 
r168 595 166 3 
r169 141 236 0.0278113 
r170 598 141 3 
r171 464 130 0.0277856 
r172 600 130 3 
r173 108 115 5.05882 
r174 107 115 5.05882 
r175 102 108 3.88985 
r176 102 103 183.96 
r177 97 107 3.88985 
r178 97 98 183.96 
r179 450 56 0.00142683 
r180 581 56 3 
r181 115 45 0.00133393 
r182 585 45 3 
r183 20 115 0.0278113 
r184 588 20 3 
r185 456 9 0.0277856 
r186 590 9 3 
.ends

.subckt PM_PC3D01U%VSSO 169 332 495 578 580 608 847 919 923 930 959 966 978 989
+ 991 994 998 1005 1014 1020 1032 1076 1082 1086 1092
c0 1092 0 31.3234f
c1 1079 0 3.52205f
c2 1076 0 16.0346f
c3 1070 0 7.92488f
c4 1068 0 6.96209f
c5 1062 0 6.96173f
c6 1057 0 6.96175f
c7 1051 0 6.96188f
c8 1046 0 6.96027f
c9 1037 0 0.0970946f
c10 1035 0 1.62567f
c11 1032 0 0.00199756f
c12 1027 0 8.95235f
c13 1020 0 0.319472f
c14 998 0 0.840215f
c15 994 0 1.37894f
c16 991 0 0.00104108f
c17 989 0 8.25608e-19
c18 987 0 8.96457f
c19 976 0 7.84947f
c20 972 0 1.27875f
c21 962 0 1.65601f
c22 959 0 58.2621f
c23 926 0 1.33521f
c24 923 0 10.6369f
c25 916 0 0.185758f
c26 914 0 0.191701f
c27 906 0 0.0945019f
c28 904 0 0.114914f
c29 902 0 0.0420165f
c30 901 0 0.334248f
c31 900 0 2.12989f
c32 896 0 9.72144f
c33 895 0 2.52971f
c34 893 0 0.0825798f
c35 892 0 0.220959f
c36 890 0 0.0965284f
c37 888 0 1.47812f
c38 887 0 0.0203358f
c39 884 0 0.107983f
c40 883 0 0.0484324f
c41 882 0 1.50948f
c42 880 0 0.0594287f
c43 879 0 0.293756f
c44 871 0 12.3076f
c45 870 0 0.725625f
c46 867 0 2.24828f
c47 863 0 0.84818f
c48 857 0 0.708327f
c49 854 0 3.24323f
c50 852 0 0.383003f
c51 851 0 0.713156f
c52 850 0 0.297488f
c53 849 0 3.26283f
c54 848 0 0.383249f
c55 847 0 0.484879f
c56 845 0 0.0157313f
c57 844 0 0.567519f
c58 840 0 1.6124f
c59 837 0 0.0651132f
c60 836 0 0.31734f
c61 803 0 0.122915f
c62 802 0 8.73234f
c63 772 0 0.269574f
c64 768 0 7.03694f
c65 765 0 0.146306f
c66 613 0 0.282873f
c67 609 0 0.231134f
c68 608 0 0.339125f
c69 602 0 0.527353f
c70 600 0 0.139632f
c71 596 0 0.238183f
c72 592 0 0.981019f
c73 591 0 0.0131245f
c74 589 0 0.136059f
c75 583 0 0.0153252f
c76 580 0 0.343703f
c77 579 0 0.193042f
c78 578 0 0.444714f
c79 515 0 5.37124f
c80 410 0 14.0382f
c81 360 0 14.0387f
c82 247 0 14.0387f
c83 197 0 14.0383f
c84 34 0 14.0362f
c85 10 0 0.146306f
r86 1090 1092 0.00282778 
r87 1089 1090 0.355444 
r88 1086 1089 0.00283333 
r89 1081 1083 0.00445269 
r90 1081 1082 0.02 
r91 1079 1081 0.00667904 
r92 1039 1040 0.0140639 
r93 1031 1032 0.0126606 
r94 1070 1029 0.0113761 
r95 1027 1029 0.0638298 
r96 1024 1074 2 
r97 1020 1024 0.000761905 
r98 989 1031 0.013211 
r99 1027 989 0.000917431 
r100 987 989 0.000913242 
r101 987 1039 0.0638298 
r102 977 978 0.02 
r103 976 1039 0.0113242 
r104 974 976 0.0327869 
r105 974 977 0.0186572 
r106 972 974 0.029258 
r107 969 1090 0.357143 
r108 966 969 0.21 
r109 964 1076 0.00544385 
r110 1074 964 0.0327273 
r111 962 964 1 
r112 962 966 0.445 
r113 957 959 0.00612761 
r114 957 1070 0.0327869 
r115 1064 955 0.00301483 
r116 955 1068 0.00301741 
r117 953 955 0.0266667 
r118 953 957 0.0287785 
r119 1014 952 0.130435 
r120 952 1062 0.00301741 
r121 1059 952 0.00301741 
r122 950 952 0.0266667 
r123 950 953 0.0242129 
r124 1053 949 0.00301483 
r125 949 1057 0.00301741 
r126 947 949 0.0266667 
r127 947 950 0.0242129 
r128 946 947 0.000615582 
r129 1005 945 0.130435 
r130 945 1051 0.00301741 
r131 1048 945 0.00301741 
r132 943 945 0.0266667 
r133 943 946 0.0235973 
r134 1042 942 0.00301483 
r135 942 1046 0.00301741 
r136 940 942 0.0266667 
r137 940 943 0.0242129 
r138 939 972 0.02 
r139 939 940 0.0277012 
r140 977 936 0.427466 
r141 933 1089 0.357143 
r142 930 933 0.21 
r143 928 1085 0.148897 
r144 1083 928 0.0151391 
r145 926 928 1 
r146 926 930 0.445 
r147 915 1074 0.24492 
r148 915 916 0.00180503 
r149 906 1037 0.0410689 
r150 904 906 3 
r151 903 904 0.148421 
r152 901 903 0.044878 
r153 901 902 0.407059 
r154 900 902 0.0446983 
r155 899 916 0.0865289 
r156 899 900 3.69176 
r157 897 914 0.00185772 
r158 897 898 0.11615 
r159 896 916 0.00180503 
r160 896 898 0.0570053 
r161 894 914 0.0857909 
r162 894 895 3.63314 
r163 892 895 0.0448303 
r164 892 893 0.199481 
r165 889 893 0.0447008 
r166 889 890 0.0831579 
r167 887 888 0.322105 
r168 883 884 0.135 
r169 882 883 0.0448391 
r170 881 882 2.75862 
r171 879 881 0.044715 
r172 879 880 0.466667 
r173 998 878 0.04 
r174 876 878 0.75 
r175 994 875 0.365 
r176 873 875 0.6 
r177 873 876 0.0226738 
r178 872 1079 0.02 
r179 872 873 0.105134 
r180 871 914 0.00185772 
r181 871 876 0.0460963 
r182 870 880 0.0450432 
r183 1085 870 1.29371 
r184 867 1035 6 
r185 887 863 0.0429996 
r186 863 867 0.00571429 
r187 859 1032 0.230275 
r188 857 1027 0.210275 
r189 853 991 0.229041 
r190 853 854 0.0863581 
r191 851 987 0.209132 
r192 851 852 0.0863581 
r193 859 849 0.0861375 
r194 849 850 0.132033 
r195 857 848 0.0861375 
r196 845 847 0.0973827 
r197 845 844 0.0421961 
r198 1037 844 1.01412 
r199 840 1035 0.0296296 
r200 839 840 3.74 
r201 836 839 0.0446983 
r202 836 837 0.542857 
r203 833 837 0.0449572 
r204 803 989 0.128 
r205 802 850 0.0473573 
r206 802 989 0.126 
r207 772 803 0.0473573 
r208 854 772 0.132033 
r209 768 989 0.126 
r210 766 989 0.128 
r211 765 766 0.0473573 
r212 765 852 0.250407 
r213 888 609 2 
r214 608 609 0.0452632 
r215 898 602 0.75 
r216 600 613 0.052373 
r217 890 600 3 
r218 833 596 0.2775 
r219 884 596 6 
r220 591 602 0.437895 
r221 591 592 0.0407126 
r222 587 589 0.149412 
r223 583 608 0.0642105 
r224 581 589 0.02 
r225 581 592 2.01647 
r226 579 587 0.02 
r227 579 580 0.221176 
r228 613 578 0.0556522 
r229 583 569 0.0480693 
r230 569 1035 0.307169 
r231 518 923 0.0419737 
r232 919 518 0.0413851 
r233 946 518 0.00128205 
r234 936 515 2.21804 
r235 515 1083 0.6 
r236 955 495 0.130435 
r237 1014 410 0.00313778 
r238 1062 410 0.0652174 
r239 495 400 0.0031351 
r240 1064 400 0.0652174 
r241 360 495 0.00314046 
r242 1068 360 0.0652174 
r243 1029 349 0.0141284 
r244 349 1031 0.0652174 
r245 949 332 0.130435 
r246 1005 247 0.00313778 
r247 1051 247 0.0652174 
r248 332 237 0.0031351 
r249 1053 237 0.0652174 
r250 197 332 0.00314046 
r251 1057 197 0.0652174 
r252 187 1014 0.00313778 
r253 1059 187 0.0652174 
r254 942 169 0.130435 
r255 84 991 0.0126027 
r256 989 84 0.0131507 
r257 1040 84 0.0652174 
r258 169 74 0.0031351 
r259 1042 74 0.0652174 
r260 34 169 0.00314046 
r261 1046 34 0.0652174 
r262 24 1005 0.00313778 
r263 1048 24 0.0652174 
r264 10 848 0.250407 
r265 10 768 0.0473573 
.ends

.subckt PM_PC3D01U%CIN 14 19 26 59 103 145
c0 141 0 7.07074f
c1 132 0 0.420752f
c2 124 0 15.657f
c3 116 0 4.21592f
c4 111 0 0.176384f
c5 107 0 0.143541f
c6 105 0 5.71899f
c7 100 0 0.112303f
c8 98 0 0.0723692f
c9 96 0 0.0379464f
c10 95 0 3.153f
c11 94 0 3.30766f
c12 92 0 0.0895149f
c13 86 0 1.41181f
c14 85 0 0.0898897f
c15 82 0 0.0375884f
c16 81 0 0.855486f
c17 80 0 0.0338006f
c18 76 0 1.37568f
c19 73 0 0.0345401f
c20 72 0 0.568273f
c21 68 0 7.74777f
c22 62 0 0.246801f
c23 61 0 0.187286f
c24 59 0 0.582869f
c25 42 0 1.20908f
c26 38 0 0.0360401f
c27 35 0 0.0555356f
c28 30 0 0.418875f
c29 26 0 1.16772f
c30 24 0 0.062646f
c31 23 0 0.3608f
c32 19 0 1.02343f
c33 14 0 0.564503f
r34 122 124 10.3871 
r35 120 122 5.01286 
r36 113 141 6 
r37 132 111 6 
r38 109 111 6 
r39 109 113 4.46429 
r40 124 107 6 
r41 105 107 6 
r42 105 109 6.27286 
r43 100 145 0.0207123 
r44 100 144 0.0568712 
r45 98 100 6 
r46 98 103 0.0207123 
r47 97 141 11.4788 
r48 95 97 0.04509 
r49 95 96 7.86286 
r50 127 94 4.69857 
r51 92 94 6 
r52 144 92 0.285714 
r53 90 96 0.0446983 
r54 90 92 0.0457143 
r55 83 85 0.107847 
r56 83 127 6 
r57 81 85 0.0448046 
r58 81 82 1.56857 
r59 80 82 0.0448488 
r60 79 80 0.103226 
r61 76 120 6 
r62 74 76 2.17429 
r63 72 79 0.0448488 
r64 72 73 1.35143 
r65 116 70 7.37143 
r66 68 70 6 
r67 67 73 0.0446983 
r68 67 68 14.7657 
r69 64 116 6 
r70 62 74 0.0446983 
r71 62 64 0.3 
r72 60 132 0.549677 
r73 60 61 0.00955498 
r74 58 61 0.0329896 
r75 58 59 0.5 
r76 55 59 0.9375 
r77 86 42 6 
r78 86 39 2.06571 
r79 39 122 6 
r80 36 35 0.0789583 
r81 35 42 1.63 
r82 31 38 0.029971 
r83 30 55 0.0450043 
r84 30 31 0.441081 
r85 25 38 0.0122637 
r86 25 26 0.9375 
r87 23 38 0.029971 
r88 23 24 0.441081 
r89 18 24 0.0450043 
r90 18 19 0.9375 
r91 36 14 0.60125 
.ends

.subckt PM_PC3D01U%PAD 21 50 91 120 161 190 247 271 295 319 349 355 380 488 507
+ 514
c0 522 0 26.8791f
c1 515 0 84.0351f
c2 514 0 64.3341f
c3 511 0 159.215f
c4 506 0 1.02561f
c5 499 0 9.97339f
c6 494 0 12.958f
c7 485 0 0.118304f
c8 482 0 203.173f
c9 468 0 15.3329f
c10 450 0 3.86483f
c11 381 0 128.322f
c12 380 0 1.04909f
c13 355 0 13.2018f
c14 349 0 13.172f
c15 319 0 13.1699f
c16 295 0 13.1832f
c17 271 0 13.4186f
c18 247 0 13.1699f
c19 212 0 7.52869f
c20 190 0 2.9853f
c21 173 0 6.78371f
c22 161 0 2.98495f
c23 144 0 6.78371f
c24 120 0 2.9853f
c25 103 0 6.78371f
c26 91 0 2.9853f
c27 74 0 6.78371f
c28 50 0 2.98608f
c29 33 0 6.78371f
c30 21 0 2.9853f
c31 4 0 6.78371f
r32 522 523 0.118407 
r33 521 522 0.118407 
r34 520 521 0.056883 
r35 519 520 0.061524 
r36 518 519 0.118407 
r37 517 518 0.0830354 
r38 516 517 0.0353716 
r39 514 515 0.0124825 
r40 512 514 0.000593149 
r41 511 512 0.0669731 
r42 506 507 0.00916 
r43 499 517 0.0545455 
r44 494 520 0.015 
r45 485 488 0.00916 
r46 485 506 2 
r47 481 494 0.0264274 
r48 481 482 0.147774 
r49 475 476 0.00752787 
r50 474 475 0.021023 
r51 472 474 0.000537705 
r52 472 511 0.00162999 
r53 470 472 0.000537705 
r54 468 470 0.0285508 
r55 459 506 0.1388 
r56 458 459 0.132996 
r57 457 458 0.0171733 
r58 456 457 0.0171733 
r59 455 456 0.0171733 
r60 454 455 0.0171733 
r61 453 454 0.0171733 
r62 450 499 0.202116 
r63 482 383 0.0288462 
r64 381 453 0.00818451 
r65 381 383 0.00646891 
r66 450 380 0.0147368 
r67 344 349 0.0072093 
r68 453 344 0.0566038 
r69 342 355 0.0072093 
r70 458 342 0.0566038 
r71 315 319 0.0072093 
r72 457 315 0.0566038 
r73 291 295 0.0072093 
r74 456 291 0.0566038 
r75 267 271 0.0072093 
r76 455 267 0.0566038 
r77 243 247 0.0072093 
r78 454 243 0.0566038 
r79 223 226 0.0022831 
r80 476 223 0.0375475 
r81 223 512 0.00547945 
r82 474 222 0.00210084 
r83 220 222 0.000537705 
r84 470 220 0.00210084 
r85 222 218 0.0105115 
r86 475 218 0.00712251 
r87 214 226 0.0187738 
r88 218 214 0.00376393 
r89 476 214 0.00712251 
r90 212 220 0.0142754 
r91 468 212 0.00356125 
r92 515 197 0.345778 
r93 196 522 0.0220132 
r94 196 197 0.319822 
r95 190 177 0.00249413 
r96 197 177 0.0425532 
r97 173 190 0.00249413 
r98 197 173 0.0425532 
r99 515 168 0.345778 
r100 167 523 0.0220132 
r101 167 168 0.319822 
r102 161 148 0.00249413 
r103 168 148 0.0425532 
r104 144 161 0.00249413 
r105 168 144 0.0425532 
r106 515 127 0.345778 
r107 126 519 0.0220132 
r108 126 127 0.319822 
r109 120 107 0.00249413 
r110 127 107 0.0425532 
r111 103 120 0.00249413 
r112 127 103 0.0425532 
r113 515 98 0.345778 
r114 97 521 0.0220132 
r115 97 98 0.319822 
r116 91 78 0.00249413 
r117 98 78 0.0425532 
r118 74 91 0.00249413 
r119 98 74 0.0425532 
r120 515 57 0.345778 
r121 56 516 0.0220132 
r122 56 57 0.319822 
r123 50 37 0.00249413 
r124 57 37 0.0425532 
r125 33 50 0.00249413 
r126 57 33 0.0425532 
r127 515 28 0.345778 
r128 27 518 0.0220132 
r129 27 28 0.319822 
r130 21 8 0.00249413 
r131 28 8 0.0425532 
r132 4 21 0.00249413 
r133 28 4 0.0425532 
.ends

.subckt PM_PC3D01U%U14_pgate_tol 18 37 68 87 118 137 168 187 298 300 302 304
+ 359 362 368 377 382 402 417 469
c0 687 0 0.414045f
c1 684 0 0.3136f
c2 682 0 0.314371f
c3 681 0 0.314371f
c4 679 0 0.314371f
c5 678 0 0.299846f
c6 676 0 0.314762f
c7 675 0 0.314371f
c8 673 0 0.314371f
c9 672 0 0.326634f
c10 669 0 7.10784f
c11 667 0 9.10442f
c12 657 0 0.173139f
c13 655 0 9.107f
c14 652 0 0.0821611f
c15 646 0 0.405412f
c16 643 0 0.309607f
c17 641 0 0.309607f
c18 640 0 0.309607f
c19 638 0 0.309607f
c20 637 0 0.293407f
c21 635 0 0.309998f
c22 634 0 0.309607f
c23 632 0 0.309607f
c24 631 0 0.309862f
c25 628 0 7.23439f
c26 627 0 0.145878f
c27 622 0 6.12473f