* File: pc3o04.dist.sp.pex
* Created: Sun Jul  4 12:38:52 2010
* Program "Calibre xRC"
* Version "v2008.4_19.14"
* Nominal Temperature: 27C
* Circuit Temperature: 27C
* 
.subckt PM_PC3O04%noxref_2 8 18
c0 20 0 4.6446f
c1 18 0 1.0397f
c2 8 0 5.82851f
r3 18 20 0.131053 
r4 20 8 0.144632 
.ends

.subckt PM_PC3O04%PAD 21 50 91 120 161 190 254 278 302 326 356 362 431 470 494
+ 501
c0 509 0 30.0831f
c1 502 0 82.6099f
c2 501 0 64.3341f
c3 498 0 159.215f
c4 493 0 0.992829f
c5 488 0 12.1008f
c6 476 0 14.2085f
c7 467 0 0.118304f
c8 465 0 206.644f
c9 450 0 15.3329f
c10 439 0 46.9405f
c11 434 0 65.4578f
c12 432 0 15.87f
c13 431 0 1.01593f
c14 430 0 0.217959f
c15 362 0 13.1526f
c16 356 0 13.123f
c17 326 0 13.1036f
c18 302 0 13.117f
c19 278 0 13.3644f
c20 254 0 13.1141f
c21 212 0 7.52869f
c22 190 0 2.97937f
c23 173 0 6.78268f
c24 161 0 2.97857f
c25 144 0 6.78268f
c26 120 0 2.97937f
c27 103 0 6.78268f
c28 91 0 2.97937f
c29 74 0 6.78268f
c30 50 0 2.9781f
c31 33 0 6.78268f
c32 21 0 2.97937f
c33 4 0 6.78268f
r34 509 510 0.0197554 
r35 508 509 0.0986516 
r36 507 508 0.118407 
r37 506 507 0.056883 
r38 505 506 0.061524 
r39 504 505 0.118407 
r40 503 504 0.118407 
r41 501 502 0.0124825 
r42 499 501 0.000593149 
r43 498 499 0.0669731 
r44 493 494 0.00916 
r45 488 509 0.06 
r46 476 506 0.015 
r47 467 470 0.00916 
r48 467 493 2 
r49 465 476 0.0264274 
r50 463 465 0.147454 
r51 463 464 0.0288462 
r52 457 458 0.00752787 
r53 456 457 0.021023 
r54 454 456 0.000537705 
r55 454 498 0.00162999 
r56 452 454 0.000537705 
r57 450 452 0.0285508 
r58 441 493 0.1388 
r59 440 441 0.132996 
r60 439 440 0.0171733 
r61 436 437 0.0171733 
r62 435 436 0.0171733 
r63 434 435 0.0171733 
r64 433 439 0.0142401 
r65 433 437 0.00293318 
r66 432 464 0.00646891 
r67 432 434 0.00818451 
r68 430 488 0.217989 
r69 430 431 0.0147368 
r70 351 356 0.0072093 
r71 434 351 0.0566038 
r72 349 362 0.0072093 
r73 440 349 0.0566038 
r74 322 326 0.0072093 
r75 439 322 0.0566038 
r76 298 302 0.0072093 
r77 437 298 0.0566038 
r78 274 278 0.0072093 
r79 436 274 0.0566038 
r80 250 254 0.0072093 
r81 435 250 0.0566038 
r82 230 233 0.0022831 
r83 458 230 0.0375475 
r84 230 499 0.00547945 
r85 456 229 0.00210084 
r86 227 229 0.000537705 
r87 452 227 0.00210084 
r88 229 218 0.0105115 
r89 457 218 0.00712251 
r90 214 233 0.0187738 
r91 218 214 0.00376393 
r92 458 214 0.00712251 
r93 212 227 0.0142754 
r94 450 212 0.00356125 
r95 502 197 0.345778 
r96 196 508 0.0220132 
r97 196 197 0.319822 
r98 190 177 0.00249413 
r99 197 177 0.0425532 
r100 173 190 0.00249413 
r101 197 173 0.0425532 
r102 502 168 0.345778 
r103 167 510 0.0220132 
r104 167 168 0.319822 
r105 161 148 0.00249413 
r106 168 148 0.0425532 
r107 144 161 0.00249413 
r108 168 144 0.0425532 
r109 502 127 0.345778 
r110 126 505 0.0220132 
r111 126 127 0.319822 
r112 120 107 0.00249413 
r113 127 107 0.0425532 
r114 103 120 0.00249413 
r115 127 103 0.0425532 
r116 502 98 0.345778 
r117 97 507 0.0220132 
r118 97 98 0.319822 
r119 91 78 0.00249413 
r120 98 78 0.0425532 
r121 74 91 0.00249413 
r122 98 74 0.0425532 
r123 502 57 0.345778 
r124 56 503 0.0220132 
r125 56 57 0.319822 
r126 50 37 0.00249413 
r127 57 37 0.0425532 
r128 33 50 0.00249413 
r129 57 33 0.0425532 
r130 502 28 0.345778 
r131 27 504 0.0220132 
r132 27 28 0.319822 
r133 21 8 0.00249413 
r134 28 8 0.0425532 
r135 4 21 0.00249413 
r136 28 4 0.0425532 
.ends

.subckt PM_PC3O04%VSS 852 920 943 968 982 993 995 1000
c0 1000 0 88.9958f
c1 993 0 49.7958f
c2 981 0 65.2092f
c3 979 0 2.59406f
c4 968 0 0.00260083f
c5 965 0 1.06717f
c6 939 0 1.86657f
c7 932 0 14.8543f
c8 917 0 1.45141f
c9 877 0 0.19585f
c10 873 0 24.8205f
c11 862 0 0.0775803f
c12 861 0 0.0432851f
c13 860 0 1.92067f
c14 859 0 0.0232103f
c15 852 0 1.98541f
c16 847 0 4.30787f
c17 846 0 2.71454f
c18 842 0 0.146915f
c19 841 0 0.577333f
c20 839 0 19.975f
c21 838 0 4.21413f
c22 837 0 0.0389222f
c23 836 0 1.80754f
c24 830 0 8.69159f
c25 827 0 0.193673f
c26 826 0 0.0905331f
c27 825 0 1.6754f
c28 697 0 1.93193f
c29 680 0 1.329f
c30 678 0 0.2058f
c31 676 0 0.272139f
c32 673 0 25.65f
c33 670 0 2.38717f
c34 655 0 2.39001f
c35 649 0 2.03669f
c36 645 0 0.135881f
c37 644 0 2.46817f
c38 643 0 0.117466f
c39 642 0 2.24284f
c40 639 0 6.9207f
c41 595 0 0.162892f
c42 593 0 0.72248f
c43 591 0 0.204021f
c44 566 0 2.94538f
c45 552 0 3.07305f
c46 550 0 0.031054f
c47 547 0 3.11758f
c48 546 0 3.12821f
c49 545 0 0.161087f
c50 530 0 4.22755f
c51 527 0 3.01095f
r52 995 998 0.000703354 
r53 991 993 0.00318245 
r54 990 991 0.00119641 
r55 989 990 0.110269 
r56 988 989 0.0486142 
r57 987 988 0.153061 
r58 986 987 0.107717 
r59 985 986 0.09001 
r60 982 985 0.00438684 
r61 979 991 0.461538 
r62 965 968 1.28857 
r63 965 988 1.5 
r64 962 987 0.047619 
r65 946 990 0.428571 
r66 943 946 0.189 
r67 941 1000 0.000702051 
r68 998 941 0.0832563 
r69 939 941 0.131579 
r70 939 943 0.013 
r71 936 937 0.572589 
r72 935 936 1.12122 
r73 932 935 0.628223 
r74 932 989 0.3 
r75 928 929 0.8265 
r76 923 985 0.428571 
r77 920 923 0.189 
r78 917 920 0.013 
r79 917 998 0.131579 
r80 860 962 2.428 
r81 860 861 0.0338756 
r82 858 962 0.067 
r83 858 859 0.0175768 
r84 855 862 0.0338756 
r85 855 856 0.087 
r86 854 861 0.0338756 
r87 852 900 2.59036 
r88 970 852 1.07807 
r89 851 862 0.00880368 
r90 851 852 0.882 
r91 850 861 0.00880368 
r92 850 852 1.062 
r93 848 981 0.0175768 
r94 848 852 0.7095 
r95 847 862 0.0338756 
r96 847 852 1.7855 
r97 846 981 0.0270064 
r98 845 859 0.0270064 
r99 845 846 4.09263 
r100 842 841 0.0577061 
r101 838 981 0.0175768 
r102 836 859 0.0175768 
r103 836 837 2.349 
r104 835 837 0.0446983 
r105 833 979 1.518 
r106 832 979 0.426 
r107 830 900 1.08482 
r108 827 970 1.06072 
r109 826 839 0.087 
r110 825 826 0.0446983 
r111 825 835 1.944 
r112 697 893 3 
r113 970 695 1 
r114 838 688 1.0015 
r115 839 688 1.2605 
r116 688 877 3 
r117 856 687 3 
r118 893 680 0.231111 
r119 936 680 1.5 
r120 687 678 0.000888889 
r121 935 678 3 
r122 676 900 3 
r123 937 676 3 
r124 673 928 0.3056 
r125 673 986 0.125 
r126 672 877 0.0005 
r127 928 672 3 
r128 670 695 0.00750563 
r129 699 670 0.056042 
r130 929 670 0.24 
r131 842 668 0.078239 
r132 873 668 1 
r133 666 873 0.9634 
r134 666 699 0.020015 
r135 655 856 1.291 
r136 833 655 0.0446983 
r137 654 697 0.835122 
r138 653 697 0.56878 
r139 648 649 1.37048 
r140 645 654 0.0448242 
r141 645 646 0.678222 
r142 644 649 0.0447675 
r143 644 646 0.650667 
r144 643 653 0.0446983 
r145 642 648 0.0447067 
r146 642 643 1.45854 
r147 639 854 1.378 
r148 639 832 0.0446983 
r149 594 595 0.147619 
r150 590 591 0.14988 
r151 830 590 0.0380723 
r152 587 589 0.143333 
r153 827 586 0.0385542 
r154 584 586 0.14506 
r155 852 583 0.159 
r156 566 852 0.159 
r157 565 595 0.02 
r158 565 583 1.247 
r159 564 591 0.02 
r160 564 566 1.243 
r161 852 563 0.192 
r162 561 852 0.192 
r163 560 561 0.342 
r164 852 560 0.192 
r165 558 852 0.192 
r166 557 558 0.342 
r167 852 557 0.192 
r168 555 852 0.192 
r169 554 555 0.342 
r170 852 554 0.192 
r171 552 852 0.192 
r172 551 594 0.02 
r173 551 563 1.214 
r174 550 593 0.04 
r175 550 552 0.243 
r176 548 590 0.02 
r177 548 593 0.938734 
r178 668 547 0.102486 
r179 546 594 0.0380952 
r180 546 547 4.80524 
r181 545 841 0.555238 
r182 545 589 0.0380952 
r183 852 541 0.159 
r184 539 852 0.159 
r185 538 539 0.408 
r186 852 538 0.159 
r187 536 852 0.159 
r188 535 536 0.408 
r189 852 535 0.159 
r190 533 852 0.159 
r191 532 533 0.408 
r192 852 532 0.159 
r193 530 852 0.159 
r194 529 589 0.02 
r195 529 541 1.247 
r196 528 586 0.02 
r197 528 530 1.243 
r198 527 587 0.02 
r199 526 584 0.02 
r200 526 527 4.69271 
.ends

.subckt PM_PC3O04%U29_U76_r1 97 102 144 150 164
c0 223 0 0.467008f
c1 208 0 16.2884f
c2 201 0 0.539132f
c3 197 0 0.24471f
c4 196 0 0.137032f
c5 192 0 0.241676f
c6 191 0 0.372795f
c7 188 0 1.55274f
c8 187 0 0.372066f
c9 185 0 0.070595f
c10 184 0 3.21179f
c11 182 0 0.166329f
c12 180 0 5.84016f
c13 173 0 1.74865f
c14 171 0 0.870078f
c15 168 0 0.060459f
c16 167 0 0.112142f
c17 163 0 0.290636f
c18 152 0 0.614342f
c19 151 0 0.171919f
c20 150 0 3.04886f
c21 144 0 3.04878f
c22 112 0 0.980433f
c23 102 0 3.04886f
c24 101 0 0.172344f
c25 97 0 3.04886f
c26 96 0 0.172324f
c27 66 0 0.463858f
r28 205 208 14.27 
r29 200 223 0.000487805 
r30 220 200 0.055122 
r31 198 200 1.5 
r32 197 198 0.04375 
r33 194 217 1.5 
r34 192 194 0.0403914 
r35 190 197 0.0230469 
r36 190 191 0.12 
r37 189 196 0.0754931 
r38 188 191 0.0615435 
r39 188 189 1.645 
r40 187 196 0.0141418 
r41 186 192 0.023092 
r42 186 187 0.120494 
r43 184 196 0.0754931 
r44 184 185 3.541 
r45 205 182 6 
r46 180 182 6 
r47 179 185 0.0448595 
r48 179 180 7.36222 
r49 176 208 6 
r50 171 173 6 
r51 171 176 1.65548 
r52 170 173 3.24387 
r53 167 170 0.0446983 
r54 167 168 0.130323 
r55 163 168 0.0664522 
r56 163 164 0.0466667 
r57 201 160 0.00142683 
r58 157 201 0.0277856 
r59 152 201 5.05882 
r60 151 201 5.05882 
r61 146 152 3.88985 
r62 146 150 183.96 
r63 141 151 3.88985 
r64 141 144 183.96 
r65 107 112 5.05882 
r66 106 112 5.05882 
r67 101 107 3.88985 
r68 101 102 183.96 
r69 96 106 3.88985 
r70 96 97 183.96 
r71 217 66 0.00292683 
r72 66 160 3 
r73 112 56 0.00133393 
r74 220 56 3 
r75 38 112 0.0278113 
r76 223 38 3 
r77 12 217 0.0526829 
r78 12 157 3 
.ends

.subckt PM_PC3O04%ngate 68 73 127 138 143 152 186 188 205 232
c0 294 0 0.482447f
c1 289 0 0.302383f
c2 282 0 16.4379f
c3 274 0 0.30787f
c4 272 0 0.0593201f
c5 271 0 0.0822752f
c6 270 0 0.151281f
c7 269 0 0.184935f
c8 265 0 1.54275f
c9 262 0 0.0592576f
c10 260 0 0.102191f
c11 259 0 0.124597f
c12 257 0 0.085281f
c13 256 0 0.0653539f
c14 254 0 0.199363f
c15 252 0 6.32749f
c16 246 0 2.2275f
c17 241 0 3.0053f
c18 233 0 0.550905f
c19 232 0 3.10442f
c20 205 0 1.64406f
c21 195 0 0.43143f
c22 188 0 0.595229f
c23 186 0 0.830276f
c24 183 0 0.148809f
c25 180 0 0.145585f
c26 167 0 1.77581f
c27 161 0 3.13017f
c28 159 0 0.0286327f
c29 156 0 0.0509039f
c30 152 0 0.953092f
c31 150 0 0.0801312f
c32 149 0 0.407641f
c33 147 0 0.456503f
c34 143 0 1.3223f
c35 138 0 1.34573f
c36 136 0 0.0513034f
c37 135 0 0.363919f
c38 134 0 0.755108f
c39 132 0 0.0503038f
c40 131 0 0.334723f
c41 127 0 2.15096f
c42 83 0 0.980025f
c43 73 0 3.04886f
c44 72 0 0.171772f
c45 68 0 3.04886f
c46 67 0 0.172381f
r47 281 282 3.40533 
r48 278 281 1.91867 
r49 273 294 0.00536585 
r50 291 273 0.0502439 
r51 272 273 1.5 
r52 269 272 0.0210063 
r53 269 270 0.0544262 
r54 266 271 0.0553598 
r55 265 270 0.0615435 
r56 265 266 1.644 
r57 262 289 3 
r58 260 262 0.0442105 
r59 259 271 0.00530639 
r60 258 260 0.0513579 
r61 258 259 0.087947 
r62 256 271 0.0553598 
r63 256 257 0.086 
r64 278 254 6 
r65 252 254 6 
r66 251 257 0.0446983 
r67 251 252 6.71 
r68 274 238 0.00142683 
r69 233 274 1.85294 
r70 228 233 3.88985 
r71 228 232 183.96 
r72 183 188 60 
r73 183 202 3.77986 
r74 180 186 85 
r75 180 195 3.53757 
r76 205 171 1.6725 
r77 246 171 6 
r78 168 249 2.28 
r79 246 168 1.3875 
r80 168 282 6 
r81 249 167 6 
r82 195 165 0.3325 
r83 241 165 6 
r84 162 244 2.2825 
r85 241 162 1.32 
r86 162 281 6 
r87 161 202 3.7825 
r88 244 161 6 
r89 158 167 3.105 
r90 158 159 0.0329896 
r91 157 205 1.3075 
r92 151 159 0.0329896 
r93 151 152 1.2375 
r94 149 159 0.00955498 
r95 149 150 0.526452 
r96 148 156 0.0338756 
r97 147 157 0.0446983 
r98 147 148 0.51 
r99 142 150 0.044713 
r100 142 143 1.2375 
r101 137 156 0.00880368 
r102 137 138 1.3075 
r103 135 156 0.0338756 
r104 135 136 0.4675 
r105 134 136 0.0446983 
r106 133 134 1.2275 
r107 131 133 0.0450043 
r108 131 132 0.441081 
r109 126 132 0.0450043 
r110 126 127 2.075 
r111 78 83 5.05882 
r112 77 83 5.05882 
r113 72 78 3.88985 
r114 72 73 183.96 
r115 67 77 3.88985 
r116 67 68 183.96 
r117 37 289 0.0521951 
r118 37 238 3 
r119 83 27 0.00133393 
r120 291 27 3 
r121 9 83 0.0278113 
r122 294 9 3 
.ends

.subckt PM_PC3O04%U29_ngate3 65 73 96 102
c0 138 0 13.3498f
c1 132 0 0.539902f
c2 128 0 0.242861f
c3 127 0 0.589658f
c4 125 0 0.0863733f
c5 124 0 6.68885f
c6 122 0 0.172294f
c7 120 0 5.97439f
c8 114 0 2.68761f
c9 104 0 0.616903f
c10 103 0 0.171612f
c11 102 0 3.04878f
c12 96 0 3.04886f
c13 73 0 0.00425734f
c14 65 0 1.71263f
c15 58 0 3.21751f
c16 33 0 0.458416f
r17 135 138 1.704 
r18 135 142 6 
r19 130 146 1.5 
r20 128 130 0.0419569 
r21 126 128 0.023092 
r22 126 127 0.186337 
r23 124 127 0.0614275 
r24 124 125 7.134 
r25 122 142 0.002 
r26 120 122 6 
r27 119 125 0.0446983 
r28 119 120 5.83 
r29 132 111 0.00142683 
r30 108 132 0.0277856 
r31 104 132 5.05882 
r32 103 132 5.05882 
r33 98 104 3.88985 
r34 98 102 183.96 
r35 93 103 3.88985 
r36 93 96 183.96 
r37 65 62 1.59714 
r38 114 62 6 
r39 59 117 3.29429 
r40 114 59 0.874286 
r41 59 138 6 
r42 58 73 4.93143 
r43 117 58 6 
r44 146 33 0.00195122 
r45 33 111 3 
r46 8 146 0.0536585 
r47 8 108 3 
.ends

.subckt PM_PC3O04%U30_ngate2 68 73 114 124 129 136 188
c0 248 0 0.446557f
c1 243 0 0.348807f
c2 234 0 0.692585f
c3 232 0 0.060721f
c4 231 0 0.085892f
c5 227 0 0.309019f
c6 224 0 0.191072f
c7 223 0 0.0874718f
c8 219 0 1.45614f
c9 218 0 0.422043f
c10 216 0 0.216603f
c11 214 0 0.0808478f
c12 213 0 8.10581f
c13 209 0 4.80793f
c14 198 0 0.140463f
c15 191 0 0.143867f
c16 189 0 0.170215f
c17 188 0 3.10391f
c18 168 0 0.309759f
c19 163 0 12.4624f
c20 153 0 0.635517f
c21 152 0 2.96286f
c22 147 0 3.13053f
c23 146 0 0.13299f
c24 144 0 0.0332827f
c25 141 0 0.0822206f
c26 140 0 0.150794f
c27 136 0 0.4335f
c28 134 0 0.0275004f
c29 133 0 0.0288497f
c30 129 0 0.476914f
c31 124 0 1.52449f
c32 122 0 0.0713867f
c33 121 0 0.119805f
c34 119 0 0.44227f
c35 118 0 3.57995f
c36 114 0 1.81608f
c37 83 0 0.980764f
c38 73 0 3.04886f
c39 72 0 0.172465f
c40 68 0 3.04886f
c41 67 0 0.172484f
c42 8 0 0.280341f
r43 238 243 6 
r44 232 250 3 
r45 229 248 0.00195122 
r46 245 229 0.0536585 
r47 227 229 1.5 
r48 225 227 0.0260123 
r49 223 232 0.0224242 
r50 223 224 0.149412 
r51 220 231 0.0298225 
r52 219 224 0.0457397 
r53 219 220 1.26308 
r54 217 231 0.0158409 
r55 217 218 0.132683 
r56 216 231 0.0158409 
r57 215 225 0.0200245 
r58 215 216 0.0685246 
r59 213 218 0.0617749 
r60 213 214 8.857 
r61 211 243 0.245263 
r62 209 211 6 
r63 208 214 0.0446983 
r64 208 209 5.03 
r65 200 203 0.58625 
r66 198 200 0.0448391 
r67 198 199 0.0717241 
r68 194 234 0.00142683 
r69 191 238 0.0825 
r70 189 234 1.85294 
r71 184 189 3.88985 
r72 184 188 183.96 
r73 167 168 0.245 
r74 191 167 0.04 
r75 153 206 0.742857 
r76 153 163 6 
r77 206 152 6 
r78 150 163 1.12267 
r79 203 150 6 
r80 147 203 2.98125 
r81 147 168 6 
r82 199 146 6 
r83 142 152 4.21429 
r84 141 146 0.0468966 
r85 144 136 0.545714 
r86 134 144 0.0464898 
r87 133 142 0.0464898 
r88 133 134 0.0430769 
r89 128 129 0.79 
r90 123 124 1.745 
r91 121 123 0.0451268 
r92 121 122 0.124211 
r93 120 140 0.0321994 
r94 119 128 0.0447517 
r95 119 120 0.647059 
r96 118 122 0.0451268 
r97 117 141 0.0448391 
r98 117 118 5.505 
r99 113 167 0.02 
r100 113 114 2.2575 
r101 112 140 0.010241 
r102 112 114 1.98 
r103 78 83 5.05882 
r104 77 83 5.05882 
r105 72 78 3.88985 
r106 72 73 183.96 
r107 67 77 3.88985 
r108 67 68 183.96 
r109 83 45 0.00133393 
r110 245 45 3 
r111 20 83 0.0278113 
r112 248 20 3 
r113 250 8 0.00341463 
r114 8 194 3 
.ends

.subckt PM_PC3O04%U29_U37_r2 22 41 98 101 113
c0 198 0 0.848254f
c1 190 0 2.54679f
c2 186 0 0.342075f
c3 184 0 0.342075f
c4 180 0 2.18716f
c5 178 0 16.0764f
c6 172 0 0.309607f
c7 168 0 0.309431f
c8 162 0 2.19812f
c9 158 0 15.7691f
c10 151 0 0.297137f
c11 145 0 6.72614f
c12 139 0 0.255567f
c13 137 0 5.41238f
c14 131 0 0.396199f
c15 129 0 0.901459f
c16 123 0 3.58164f
c17 119 0 0.391637f
c18 113 0 0.324589f
c19 112 0 0.0658877f
c20 93 0 5.08533f
c21 92 0 0.435521f
c22 89 0 0.339167f
c23 86 0 0.309686f
c24 63 0 4.93155f
c25 61 0 0.107211f
c26 59 0 0.125938f
c27 26 0 5.00824f
c28 24 0 0.127461f
c29 7 0 4.93155f
c30 5 0 0.105841f
r31 185 186 0.219512 
r32 184 185 0.16039 
r33 180 182 0.189756 
r34 175 178 0.909333 
r35 175 198 6 
r36 169 193 6 
r37 169 172 0.219512 
r38 168 169 0.160878 
r39 166 193 0.716049 
r40 190 166 0.608395 
r41 164 166 6 
r42 162 164 0.158049 
r43 198 160 1.064 
r44 158 160 6 
r45 155 158 13.8293 
r46 150 151 3 
r47 145 160 6 
r48 145 150 4.22645 
r49 142 190 6 
r50 155 139 6 
r51 137 139 6 
r52 137 142 5.18 
r53 134 178 6 
r54 129 131 6 
r55 129 134 1.41161 
r56 125 185 6 
r57 123 125 0.682927 
r58 123 182 6 
r59 121 123 0.683902 
r60 120 151 0.022693 
r61 119 121 0.045829 
r62 119 120 0.170323 
r63 116 131 0.643871 
r64 112 116 0.055223 
r65 112 113 0.109189 
r66 93 98 394.95 
r67 92 180 2.85294 
r68 92 93 1.5 
r69 89 184 0.32839 
r70 182 89 0.194146 
r71 86 168 0.327902 
r72 164 86 0.218537 
r73 64 89 2.04706 
r74 63 101 394.95 
r75 63 64 4.2601 
r76 62 86 2.04706 
r77 61 101 394.95 
r78 61 62 4.2601 
r79 60 162 2.07059 
r80 59 98 394.95 
r81 59 60 4.2601 
r82 27 186 2.07647 
r83 26 41 394.95 
r84 26 27 4.2601 
r85 25 172 2.07647 
r86 24 41 394.95 
r87 24 25 4.2601 
r88 8 184 2.07647 
r89 7 22 394.95 
r90 7 8 4.2601 
r91 6 168 2.07647 
r92 5 22 394.95 
r93 5 6 4.2601 
.ends

.subckt PM_PC3O04%pgate 18 37 68 87 118 137 205 207 226 228 235 242 251 281
c0 389 0 15.8009f
c1 371 0 0.391813f
c2 368 0 0.309607f
c3 366 0 0.309607f
c4 365 0 0.309607f
c5 363 0 0.309607f
c6 362 0 0.293407f
c7 359 0 4.83633f
c8 355 0 0.552143f
c9 346 0 9.72063f
c10 341 0 4.88086f
c11 326 0 5.7249f
c12 320 0 2.21702f
c13 307 0 4.88953f
c14 305 0 0.0822108f
c15 304 0 0.498493f
c16 281 0 0.00463128f
c17 279 0 2.77723f
c18 270 0 0.195494f
c19 268 0 15.7082f
c20 264 0 0.028277f
c21 262 0 0.0229304f
c22 260 0 0.028277f
c23 251 0 1.38868f
c24 248 0 0.346041f
c25 246 0 0.358918f
c26 242 0 1.12633f
c27 239 0 0.186859f
c28 235 0 1.96557f
c29 233 0 0.0474161f
c30 232 0 0.289619f
c31 228 0 2.76862f
c32 226 0 1.44198f
c33 203 0 5.10444f
c34 199 0 0.445133f
c35 194 0 4.81603f
c36 193 0 0.407106f
c37 181 0 0.370539f
c38 134 0 0.342075f
c39 122 0 4.93155f
c40 120 0 0.105999f
c41 115 0 0.342075f
c42 103 0 4.93155f
c43 101 0 0.105999f
c44 84 0 0.342075f
c45 72 0 4.93155f
c46 70 0 0.105999f
c47 65 0 0.342075f
c48 53 0 4.93384f
c49 51 0 0.106492f
c50 34 0 0.33197f
c51 22 0 4.89995f
c52 20 0 0.105999f
c53 15 0 5.10147f
c54 3 0 4.98232f
c55 1 0 0.112791f
r56 368 369 0.323902 
r57 365 366 0.327902 
r58 362 363 0.327902 
r59 355 389 0.36 
r60 353 355 6 
r61 344 346 6 
r62 341 344 6.644 
r63 341 389 6 
r64 339 346 9.326 
r65 336 384 6 
r66 333 336 0.708293 
r67 333 381 6 
r68 330 333 0.708293 
r69 330 378 6 
r70 326 330 0.708293 
r71 326 375 6 
r72 320 322 2.3 
r73 319 371 0.219512 
r74 369 319 0.164878 
r75 317 319 6 
r76 316 368 0.219512 
r77 366 316 0.160878 
r78 314 316 6 
r79 314 317 0.708293 
r80 313 365 0.219512 
r81 363 313 0.160878 
r82 311 313 6 
r83 311 314 0.708293 
r84 309 362 0.219512 
r85 359 309 0.160878 
r86 307 309 6 
r87 307 311 0.708293 
r88 306 317 0.422439 
r89 305 339 0.0448634 
r90 304 306 0.050007 
r91 304 305 0.368539 
r92 279 281 4.4225 
r93 320 270 6 
r94 353 268 4.492 
r95 322 268 6 
r96 322 265 1.4 
r97 265 279 6 
r98 263 281 1.3875 
r99 263 264 0.00880368 
r100 261 270 0.185 
r101 261 262 0.0373215 
r102 250 251 1.3625 
r103 249 264 0.0338756 
r104 248 255 0.0446983 
r105 248 249 0.51 
r106 247 262 0.00604629 
r107 246 250 0.0448998 
r108 246 247 0.453333 
r109 241 262 0.0373215 
r110 241 242 1.3625 
r111 240 260 0.0338756 
r112 239 264 0.0338756 
r113 239 240 0.3825 
r114 234 260 0.00880368 
r115 234 235 2.485 
r116 232 260 0.0338756 
r117 232 233 0.51 
r118 227 233 0.0446983 
r119 227 228 2.485 
r120 255 226 1.3875 
r121 203 207 394.95 
r122 202 203 1.5 
r123 384 199 0.219512 
r124 199 202 2.81176 
r125 196 384 0.16439 
r126 194 205 394.95 
r127 193 196 2.74706 
r128 193 194 1.5 
r129 191 207 394.95 
r130 371 190 2.78235 
r131 190 191 1.5 
r132 182 205 394.95 
r133 181 369 2.74706 
r134 181 182 1.5 
r135 134 196 0.32439 
r136 381 134 0.219512 
r137 123 134 2.07647 
r138 122 137 394.95 
r139 122 123 4.2601 
r140 121 368 2.07647 
r141 120 137 394.95 
r142 120 121 4.2601 
r143 115 381 0.16039 
r144 104 115 2.07647 
r145 103 118 394.95 
r146 103 104 4.2601 
r147 102 366 2.07647 
r148 101 118 394.95 
r149 101 102 4.2601 
r150 84 115 0.32839 
r151 378 84 0.219512 
r152 73 84 2.07647 
r153 72 87 394.95 
r154 72 73 4.2601 
r155 71 365 2.07647 
r156 70 87 394.95 
r157 70 71 4.2601 
r158 65 378 0.16039 
r159 54 65 2.07647 
r160 53 68 394.95 
r161 53 54 4.2601 
r162 52 363 2.07647 
r163 51 68 394.95 
r164 51 52 4.2601 
r165 34 65 0.32839 
r166 375 34 0.219512 
r167 23 34 2.07647 
r168 22 37 394.95 
r169 22 23 4.2601 
r170 21 362 2.07647 
r171 20 37 394.95 
r172 20 21 4.2601 
r173 15 375 0.16039 
r174 4 15 2.07647 
r175 3 18 394.95 
r176 3 4 4.2601 
r177 2 359 2.07647 
r178 1 18 394.95 
r179 1 2 4.2601 
.ends

.subckt PM_PC3O04%VDDO 880 887 894 901 908 915 922 935 1005 1008 1013 1070 1259
+ 1318 1322 1325 1329 1336 1343 1364 1393 1406 1414 1421 1427 1433 1439 1481 1492
+ 1520 1525
c0 1525 0 20.6481f
c1 1517 0 5.56311f
c2 1508 0 6.80765f
c3 1499 0 8.85211f
c4 1495 0 7.84962f
c5 1492 0 45.2419f
c6 1478 0 2.98997f
c7 1439 0 2.71246f
c8 1433 0 2.20213f
c9 1427 0 0.8054f
c10 1421 0 1.42728f
c11 1418 0 3.06166f
c12 1403 0 0.505102f
c13 1396 0 30.0558f
c14 1395 0 1.89109f
c15 1393 0 62.7666f
c16 1391 0 2.16529f
c17 1369 0 1.26796f
c18 1342 0 50.4197f
c19 1333 0 0.645154f
c20 1329 0 3.02423f
c21 1322 0 2.50412f
c22 1307 0 1.86788f
c23 1305 0 0.232281f
c24 1295 0 0.149549f
c25 1293 0 0.383834f
c26 1287 0 0.105293f
c27 1277 0 0.193678f
c28 1273 0 0.520307f
c29 1268 0 1.93926f
c30 1263 0 0.0595024f
c31 1262 0 0.106413f
c32 1258 0 0.290708f
c33 1226 0 10.2337f
c34 1225 0 9.76182f
c35 1081 0 0.336827f
c36 1064 0 11.5745f
c37 1042 0 0.206145f
c38 1038 0 2.0974f
c39 1034 0 2.10324f
c40 1028 0 7.57381f
c41 1027 0 4.59897f
c42 1025 0 0.0193183f
c43 1024 0 4.3666f
c44 1019 0 0.0933881f
c45 1013 0 4.09112e-19
c46 1012 0 2.58374f
c47 1008 0 1.44145f
c48 1005 0 0.479262f
c49 1003 0 0.0481051f
c50 1002 0 0.14235f
c51 935 0 7.96434f
c52 927 0 7.10006f
c53 922 0 0.0206272f
c54 915 0 0.0106455f
c55 908 0 0.0106455f
c56 901 0 0.0106455f
c57 894 0 0.0221186f
c58 887 0 0.0106455f
c59 880 0 0.00830585f
c60 847 0 11.8237f
c61 845 0 19.4285f
c62 843 0 19.2472f
c63 841 0 19.4447f
c64 839 0 19.4159f
c65 837 0 19.4159f
c66 835 0 11.7226f
c67 809 0 0.155254f
c68 808 0 6.5783f
c69 805 0 0.115344f
c70 804 0 6.1781f
c71 21 0 0.152029f
c72 20 0 6.72461f
c73 11 0 0.152029f
c74 10 0 6.75749f
r75 1520 1523 0.00394881 
r76 1517 1518 0.834754 
r77 1510 1511 0.279231 
r78 1508 1510 0.266538 
r79 1501 1502 0.273962 
r80 1499 1501 0.261509 
r81 1489 1490 0.415076 
r82 1488 1489 0.0205664 
r83 1487 1488 0.028671 
r84 1486 1487 0.0354684 
r85 1485 1486 0.0570806 
r86 1480 1492 0.00304139 
r87 1490 1480 0.00174292 
r88 1478 1480 0.461538 
r89 1442 1489 0.6 
r90 1439 1442 1.6625 
r91 1436 1488 0.6 
r92 1433 1436 1.6625 
r93 1430 1487 0.75 
r94 1427 1430 0.1575 
r95 1424 1486 0.75 
r96 1421 1424 1.1525 
r97 1420 1485 0.00174292 
r98 1481 1420 0.00305011 
r99 1418 1420 0.461538 
r100 1414 1517 0.2 
r101 1410 1525 0.0039415 
r102 1523 1410 0.467422 
r103 1408 1410 0.5 
r104 1406 1408 0.181 
r105 1403 1406 0.17 
r106 1403 1490 1.5 
r107 1400 1401 0.5433 
r108 1399 1400 0.2287 
r109 1398 1399 0.56298 
r110 1396 1398 0.0036 
r111 1395 1414 0.0528252 
r112 1395 1401 0.099 
r113 1518 1391 0.650164 
r114 1389 1391 0.181818 
r115 1389 1393 0.0136564 
r116 1511 1388 0.279231 
r117 1388 1386 0.279231 
r118 1386 1384 0.279231 
r119 1384 1382 0.266538 
r120 1380 1382 1.5 
r121 1380 1384 1.5 
r122 1380 1386 1.5 
r123 1380 1388 1.5 
r124 1380 1389 0.0314855 
r125 1379 1380 0.0601494 
r126 1502 1378 0.273962 
r127 1378 1376 0.273962 
r128 1376 1374 0.273962 
r129 1374 1372 0.261509 
r130 1370 1372 1.5 
r131 1370 1374 1.5 
r132 1370 1376 1.5 
r133 1370 1378 1.5 
r134 1370 1379 0.0634357 
r135 1497 1369 0.000740741 
r136 1367 1369 0.2 
r137 1367 1370 0.0334274 
r138 1364 1367 0.01361 
r139 1358 1510 1.5 
r140 1358 1508 1.5 
r141 1358 1511 1.5 
r142 1356 1358 0.0694058 
r143 1350 1501 1.5 
r144 1350 1499 1.5 
r145 1350 1356 0.0805639 
r146 1350 1502 1.5 
r147 1346 1495 0.2 
r148 1346 1350 0.0404834 
r149 1343 1346 0.0165962 
r150 1342 1414 0.0245381 
r151 1342 1358 0.0330312 
r152 1339 1523 0.5 
r153 1336 1339 0.181 
r154 1333 1336 0.17 
r155 1333 1485 1.5 
r156 1305 1307 6 
r157 1304 1305 0.565161 
r158 1293 1304 0.0564739 
r159 1289 1302 0.1836 
r160 1472 1289 0.0028 
r161 1287 1289 6 
r162 1265 1307 3.20516 
r163 1262 1265 0.0446983 
r164 1262 1263 0.112258 
r165 1258 1263 0.0664522 
r166 1258 1259 0.0466667 
r167 1226 1302 0.0784 
r168 1225 1472 0.2648 
r169 1224 1472 0.2664 
r170 1223 1472 0.2664 
r171 1079 1081 1 
r172 1076 1295 3 
r173 1073 1076 0.2885 
r174 1073 1277 2 
r175 1070 1073 2.755 
r176 1062 1064 3.90065 
r177 1060 1062 5.61677 
r178 1277 1050 0.000233918 
r179 1400 1050 2 
r180 1287 1048 0.000149533 
r181 1398 1048 6 
r182 1081 1046 0.000100503 
r183 1401 1046 1 
r184 1064 1044 2 
r185 1293 1044 0.0492308 
r186 1399 1044 2 
r187 1042 1302 1.5 
r188 1396 1042 1.5 
r189 1295 1040 0.000299625 
r190 1400 1040 3 
r191 1273 1038 6 
r192 1273 1035 0.742857 
r193 1035 1062 6 
r194 1268 1034 3 
r195 1031 1271 3.25857 
r196 1268 1031 0.562857 
r197 1031 1060 6 
r198 1271 1030 6 
r199 1028 1079 0.217284 
r200 1027 1076 0.0845 
r201 1026 1038 4.30714 
r202 1024 1030 0.477 
r203 1024 1025 0.0149881 
r204 1023 1070 0.203 
r205 1023 1025 0.0149881 
r206 1022 1034 3.38061 
r207 1019 1030 2.5 
r208 1018 1478 0.526 
r209 1018 1028 0.0447005 
r210 1017 1478 2.122 
r211 1017 1027 0.0446983 
r212 1012 1026 0.0448488 
r213 1012 1013 3.6271 
r214 1007 1025 0.0313149 
r215 1007 1008 1.51 
r216 1004 1005 0.21697 
r217 1003 1022 0.0446983 
r218 1002 1004 0.0446983 
r219 1002 1003 0.225455 
r220 992 1418 2.122 
r221 992 1019 0.0446983 
r222 938 935 0.159252 
r223 935 945 0.159252 
r224 927 935 0.159252 
r225 1497 876 0.2 
r226 935 876 0.0391734 
r227 859 935 0.0397569 
r228 849 938 0.0829907 
r229 935 849 0.0291589 
r230 1518 849 0.1 
r231 880 847 0.793846 
r232 1508 847 1.5 
r233 887 845 0.55145 
r234 1510 845 1.5 
r235 894 843 0.55145 
r236 1511 843 1.5 
r237 901 841 0.55145 
r238 1388 841 1.5 
r239 908 839 0.55145 
r240 1386 839 1.5 
r241 915 837 0.55145 
r242 1384 837 1.5 
r243 922 835 0.793846 
r244 1382 835 1.5 
r245 833 880 0.842637 
r246 1499 833 1.5 
r247 831 887 0.585344 
r248 1501 831 1.5 
r249 829 894 0.585344 
r250 1502 829 1.5 
r251 827 901 0.585344 
r252 1378 827 1.5 
r253 825 908 0.585344 
r254 1376 825 1.5 
r255 823 915 0.585344 
r256 1374 823 1.5 
r257 821 922 0.842637 
r258 1372 821 1.5 
r259 816 1497 1.77815 
r260 1495 816 0.00037037 
r261 816 859 0.2 
r262 815 945 0.73271 
r263 814 927 0.737944 
r264 813 935 0.73271 
r265 812 935 0.737944 
r266 809 813 0.0451326 
r267 809 935 2.504 
r268 808 815 0.0451326 
r269 808 935 2.44889 
r270 805 812 0.045921 
r271 805 935 2.687 
r272 804 814 0.045921 
r273 804 935 2.885 
r274 442 1329 0.0526456 
r275 1325 442 0.0552365 
r276 1379 442 0.00227273 
r277 440 1322 0.0620926 
r278 1318 440 0.0688218 
r279 1356 440 0.0025 
r280 1226 21 0.0447329 
r281 21 1472 1.51848 
r282 20 1225 0.0447329 
r283 20 1472 1.51162 
r284 1224 11 0.0447329 
r285 11 1472 1.51848 
r286 10 1223 0.0447329 
r287 10 1472 1.51162 
.ends

.subckt PM_PC3O04%VSSO 173 336 499 566 585 840 844 851 882 889 901 912 914 917
+ 922 928 934 940 949 955 961 970 980 988 991 1041 1044 1050
c0 1050 0 31.6819f
c1 1041 0 30.6445f
c2 1033 0 7.81675f
c3 1031 0 6.82494f
c4 1025 0 6.8246f
c5 1020 0 6.82688f
c6 1014 0 6.82829f
c7 1009 0 6.83153f
c8 983 0 8.95235f
c9 980 0 0.29997f
c10 961 0 1.3628f
c11 955 0 1.39344f
c12 940 0 1.58876f
c13 934 0 1.44495f
c14 928 0 0.892499f
c15 922 0 1.55563f
c16 917 0 1.69113f
c17 912 0 8.25608e-19
c18 910 0 8.96457f
c19 899 0 7.76776f
c20 895 0 1.27875f
c21 885 0 1.68106f
c22 882 0 58.1886f
c23 859 0 6.41552f
c24 847 0 1.20066f
c25 844 0 10.1734f
c26 837 0 0.33645f
c27 836 0 13.5066f
c28 829 0 2.40125f
c29 822 0 0.708327f
c30 821 0 3.25002f
c31 819 0 0.383003f
c32 818 0 0.713156f
c33 817 0 0.292567f
c34 816 0 3.24965f
c35 815 0 0.383249f
c36 785 0 0.123501f
c37 784 0 8.78802f
c38 754 0 0.264976f
c39 750 0 7.03694f
c40 747 0 0.146306f
c41 587 0 0.509108f
c42 585 0 0.378532f
c43 584 0 0.141815f
c44 582 0 0.345843f
c45 566 0 0.114597f
c46 414 0 14.0333f
c47 364 0 14.0357f
c48 251 0 14.0368f
c49 201 0 14.0354f
c50 38 0 14.0386f
c51 14 0 0.146306f
r52 1048 1050 0.00282778 
r53 1047 1048 0.355444 
r54 1044 1047 0.00283333 
r55 1038 1039 0.186791 
r56 1037 1038 0.0396791 
r57 1002 1003 0.0140639 
r58 999 1000 0.0253476 
r59 998 999 0.0241711 
r60 997 998 0.0203209 
r61 996 997 0.0213904 
r62 995 996 0.0744385 
r63 987 988 0.0126606 
r64 1033 985 0.0113761 
r65 983 985 0.0638298 
r66 977 980 0.0335135 
r67 977 1039 2 
r68 964 1038 0.6 
r69 961 964 0.285 
r70 958 1037 0.6 
r71 955 958 0.32 
r72 943 1000 0.6 
r73 940 943 0.9975 
r74 937 999 0.6 
r75 934 937 0.995 
r76 931 998 0.6 
r77 928 931 0.194286 
r78 925 997 0.6 
r79 922 925 0.3175 
r80 919 996 0.666667 
r81 917 919 0.96 
r82 912 987 0.013211 
r83 983 912 0.000917431 
r84 910 912 0.000913242 
r85 910 1002 0.0638298 
r86 900 901 0.02 
r87 899 1002 0.0113242 
r88 897 899 0.0327869 
r89 897 900 0.0166784 
r90 895 897 0.029258 
r91 892 1048 0.357143 
r92 889 892 0.21 
r93 887 1041 0.00544385 
r94 1039 887 0.125294 
r95 885 887 1 
r96 885 889 0.445 
r97 880 882 0.00612761 
r98 880 1033 0.0327869 
r99 1027 878 0.00301483 
r100 878 1031 0.00301741 
r101 876 878 0.0266667 
r102 876 880 0.0287785 
r103 970 875 0.130435 
r104 875 1025 0.00301741 
r105 1022 875 0.00301741 
r106 873 875 0.0266667 
r107 873 876 0.0242129 
r108 1016 872 0.00301483 
r109 872 1020 0.00301741 
r110 870 872 0.0266667 
r111 870 873 0.0242129 
r112 869 870 0.000615582 
r113 949 868 0.130435 
r114 868 1014 0.00301741 
r115 1011 868 0.00301741 
r116 866 868 0.0266667 
r117 866 869 0.0235973 
r118 1005 865 0.00301483 
r119 865 1009 0.00301741 
r120 863 865 0.0266667 
r121 863 866 0.0242129 
r122 862 895 0.02 
r123 862 863 0.0277012 
r124 859 995 0.6 
r125 900 857 0.429445 
r126 857 859 2.21804 
r127 854 1047 0.357143 
r128 851 854 0.21 
r129 849 995 0.017861 
r130 991 849 0.00545455 
r131 847 849 1 