* File: pc3d11u.dist.sp.pex
* Created: Sun Jul  4 12:29:17 2010
* Program "Calibre xRC"
* Version "v2008.4_19.14"
* Nominal Temperature: 27C
* Circuit Temperature: 27C
* 
.subckt PM_PC3D11U%U14_padr 12 61 69 131 133 135 145 185
c0 260 0 9.32193f
c1 255 0 15.7338f
c2 245 0 5.64073f
c3 243 0 0.501133f
c4 241 0 0.0674659f
c5 240 0 0.207306f
c6 239 0 0.394066f
c7 232 0 15.9648f
c8 220 0 0.931344f
c9 215 0 1.87564f
c10 210 0 0.287706f
c11 208 0 0.0602619f
c12 207 0 0.297084f
c13 200 0 0.325874f
c14 194 0 0.596936f
c15 190 0 2.52193f
c16 189 0 0.266787f
c17 186 0 0.703354f
c18 185 0 0.849354f
c19 160 0 0.0871415f
c20 154 0 0.0816717f
c21 145 0 1.85416f
c22 143 0 15.9515f
c23 135 0 1.12834f
c24 133 0 0.590498f
c25 131 0 1.02345f
c26 101 0 0.403436f
c27 98 0 0.563805f
c28 97 0 0.375602f
c29 94 0 2.0648f
c30 93 0 0.643347f
c31 88 0 0.435871f
c32 85 0 0.250487f
c33 84 0 0.0273462f
c34 83 0 0.0754036f
c35 79 0 0.0937091f
c36 75 0 0.30782f
c37 73 0 0.0443674f
c38 72 0 0.113991f
c39 69 0 1.26501f
c40 66 0 0.0532954f
c41 65 0 0.356755f
c42 61 0 2.00711f
c43 21 0 0.117916f
c44 20 0 0.033825f
c45 19 0 0.0510441f
c46 18 0 0.0886803f
c47 16 0 5.29399f
c48 12 0 1.07645f
r49 251 253 3.984 
r50 260 245 0.185079 
r51 243 245 1.2 
r52 242 243 0.482857 
r53 240 242 0.0446983 
r54 240 241 0.125714 
r55 239 241 0.0446983 
r56 234 255 6 
r57 232 234 0.172857 
r58 225 226 6 
r59 222 255 6.60933 
r60 253 222 4.384 
r61 220 222 6 
r62 220 225 0.8816 
r63 209 210 0.5875 
r64 207 210 0.0446983 
r65 207 208 0.3675 
r66 203 208 0.0446983 
r67 200 209 0.0446983 
r68 200 201 0.4075 
r69 189 226 0.0840267 
r70 187 189 0.0448127 
r71 187 190 2.62845 
r72 186 260 0.18836 
r73 190 185 0.0773806 
r74 142 143 1.07733 
r75 123 135 168.333 
r76 123 160 3.6393 
r77 118 133 51.6667 
r78 117 118 1.66667 
r79 110 131 168.333 
r80 154 110 3.6393 
r81 215 105 6 
r82 102 218 0.8025 
r83 215 102 2.8475 
r84 102 143 6 
r85 101 160 0.7875 
r86 218 101 6 
r87 98 213 1.2525 
r88 98 253 6 
r89 97 154 0.7825 
r90 213 97 6 
r91 94 205 0.8 
r92 203 94 2.1725 
r93 94 142 6 
r94 205 93 6 
r95 145 91 1.5325 
r96 201 91 6 
r97 88 198 0.482667 
r98 88 251 6 
r99 87 142 3.112 
r100 198 87 6 
r101 85 105 0.05 
r102 81 83 0.12 
r103 81 93 0.8825 
r104 80 145 1.3775 
r105 79 85 0.0446983 
r106 78 84 0.0338756 
r107 78 79 0.1875 
r108 75 117 1.16667 
r109 74 84 0.0338756 
r110 74 75 0.245 
r111 72 84 0.00880368 
r112 72 73 0.25 
r113 68 73 0.0446983 
r114 68 69 1.2575 
r115 67 69 1.3775 
r116 66 80 0.0447588 
r117 65 67 0.0447588 
r118 65 66 0.544 
r119 83 61 2.375 
r120 194 23 0.30381 
r121 21 23 3 
r122 20 21 0.109474 
r123 247 19 0.0446983 
r124 20 18 0.0456991 
r125 18 19 0.147143 
r126 247 16 10.3129 
r127 16 232 2 
r128 13 239 0.407619 
r129 13 194 0.0446983 
r130 186 12 0.0147368 
.ends

.subckt PM_PC3D11U%VDDO 824 892 903 914 925 936 947 958 973 1165 1171 1175 1208
+ 1275 1542 1546 1549 1553 1561 1568 1575 1584 1594 1606 1612 1618 1624 1630 1640
+ 1679 1693 1696 1701
c0 1701 0 20.3129f
c1 1693 0 46.7478f
c2 1675 0 2.98997f
c3 1644 0 9.5721f
c4 1637 0 0.468429f
c5 1630 0 1.94764f
c6 1624 0 2.15874f
c7 1618 0 1.72102f
c8 1612 0 1.95034f
c9 1606 0 2.02308f
c10 1603 0 3.35178f
c11 1591 0 0.505082f
c12 1587 0 29.0776f
c13 1586 0 1.97484f
c14 1584 0 62.8661f
c15 1567 0 50.9389f
c16 1558 0 0.696813f
c17 1556 0 1.2453f
c18 1553 0 3.00652f
c19 1546 0 2.4994f
c20 1539 0 0.0698777f
c21 1537 0 1.09255f
c22 1530 0 0.330853f
c23 1526 0 0.14958f
c24 1520 0 0.230124f
c25 1516 0 0.661063f
c26 1512 0 0.332801f
c27 1508 0 0.194107f
c28 1503 0 2.2149f
c29 1502 0 0.985815f
c30 1500 0 0.0714314f
c31 1499 0 0.111846f
c32 1465 0 9.76182f
c33 1296 0 11.7039f
c34 1294 0 2.10895f
c35 1284 0 0.444232f
c36 1275 0 0.0819925f
c37 1252 0 0.120606f
c38 1246 0 0.119415f
c39 1242 0 0.00686422f
c40 1240 0 7.65486f
c41 1239 0 8.96216f
c42 1232 0 0.0962101f
c43 1224 0 0.349207f
c44 1221 0 0.764241f
c45 1215 0 0.0303797f
c46 1214 0 0.850499f
c47 1208 0 1.25788f
c48 1120 0 3.63084f
c49 1085 0 5.39118f
c50 1070 0 1.29937f
c51 1066 0 0.615713f
c52 1062 0 8.82846f
c53 1060 0 6.7868f
c54 1058 0 0.588747f
c55 1052 0 0.170971f
c56 1049 0 0.0533066f
c57 1047 0 0.0989764f
c58 973 0 7.73649f
c59 965 0 7.33964f
c60 962 0 11.7156f
c61 951 0 19.4869f
c62 940 0 19.4869f
c63 929 0 19.5155f
c64 918 0 19.4869f
c65 907 0 19.4869f
c66 896 0 11.8398f
c67 849 0 0.210878f
c68 812 0 0.0533066f
c69 801 0 0.12462f
c70 800 0 5.89132f
c71 797 0 0.104443f
c72 796 0 6.16073f
c73 17 0 0.486838f
c74 16 0 6.73322f
c75 7 0 0.152029f
c76 6 0 6.75738f
r77 1696 1699 0.00394881 
r78 1690 1691 0.247407 
r79 1689 1690 0.0250109 
r80 1688 1689 0.0205664 
r81 1687 1688 0.122789 
r82 1686 1687 0.0124619 
r83 1685 1686 0.031634 
r84 1684 1685 0.0270153 
r85 1683 1684 0.0699782 
r86 1677 1693 0.00304139 
r87 1691 1677 0.00174292 
r88 1675 1677 0.461538 
r89 1637 1640 0.0002 
r90 1637 1690 0.666667 
r91 1633 1689 0.545455 
r92 1630 1633 1.185 
r93 1627 1688 0.545455 
r94 1624 1627 1.45 
r95 1621 1687 0.545455 
r96 1618 1621 1.4825 
r97 1615 1686 0.545455 
r98 1612 1615 1.63 
r99 1609 1684 0.5 
r100 1606 1609 1.455 
r101 1605 1683 0.00174292 
r102 1679 1605 0.00305011 
r103 1603 1605 0.461538 
r104 1598 1701 0.0039415 
r105 1699 1598 0.467422 
r106 1596 1598 0.5 
r107 1594 1596 0.181 
r108 1591 1594 0.17 
r109 1591 1691 1.5 
r110 1588 1589 0.5433 
r111 1587 1588 0.2247 
r112 1586 1589 0.099 
r113 1582 1584 0.0136564 
r114 1581 1582 0.0314855 
r115 1580 1581 0.0601494 
r116 1579 1580 0.0634357 
r117 1578 1579 0.0334274 
r118 1575 1578 0.01361 
r119 1564 1699 0.5 
r120 1561 1564 0.181 
r121 1558 1561 0.17 
r122 1558 1683 1.5 
r123 1556 1587 0.5293 
r124 1532 1535 3 
r125 1644 1532 0.0677429 
r126 1530 1532 3 
r127 1644 1522 0.1116 
r128 1672 1522 0.0028 
r129 1520 1522 6 
r130 1539 1501 0.0456991 
r131 1501 1502 2.06857 
r132 1499 1502 0.0446983 
r133 1499 1500 0.0971429 
r134 1497 1500 0.0446983 
r135 1497 1537 1.64571 
r136 1465 1672 0.2648 
r137 1464 1672 0.2664 
r138 1463 1672 0.2664 
r139 1298 1516 1.2 
r140 1296 1298 12.5639 
r141 1287 1512 1 
r142 1281 1526 3 
r143 1278 1281 0.2885 
r144 1278 1508 2 
r145 1275 1278 2.755 
r146 1274 1275 1.9625 
r147 1273 1274 0.361 
r148 1520 1265 0.000149533 
r149 1556 1264 0.0555566 
r150 1264 1265 6 
r151 1263 1535 0.0444444 
r152 1530 1263 7.40741e-05 
r153 1556 1262 0.0279474 
r154 1262 1263 1.5 
r155 1508 1261 0.000233918 
r156 1588 1261 2 
r157 1516 1259 0.000114123 
r158 1587 1259 1.2 
r159 1512 1257 0.000100503 
r160 1589 1257 1 
r161 1526 1255 0.000299625 
r162 1588 1255 3 
r163 1539 1252 6 
r164 1537 1249 0.0557895 
r165 1249 1273 3 
r166 1247 1274 6 
r167 1246 1294 0.0561431 
r168 1503 1246 6 
r169 1243 1247 3.20857 
r170 1503 1243 0.582857 
r171 1243 1296 6 
r172 1242 1284 0.0484211 
r173 1685 1242 2 
r174 1240 1287 0.219259 
r175 1239 1281 0.0845 
r176 1232 1273 0.8885 
r177 1231 1675 0.526 
r178 1231 1240 0.0447005 
r179 1230 1675 2.122 
r180 1230 1239 0.0446983 
r181 1221 1224 0.81913 
r182 1220 1224 0.309565 
r183 1214 1220 0.0446983 
r184 1214 1215 2.14261 
r185 1212 1215 0.0447246 
r186 1212 1294 4.39833 
r187 1207 1252 0.0422277 
r188 1207 1208 1.5875 
r189 1201 1603 2.122 
r190 1201 1232 0.0446983 
r191 1224 1175 5.56667 
r192 1221 1171 5.56667 
r193 1165 1284 5.54444 
r194 1122 1123 0.490516 
r195 1121 1122 0.232864 
r196 1120 1121 0.279437 
r197 1111 1112 0.279231 
r198 1110 1111 0.2665 
r199 1101 1102 0.273962 
r200 1100 1101 0.261472 
r201 1087 1088 0.278131 
r202 1084 1553 0.0526456 
r203 1549 1084 0.0552365 
r204 1580 1084 0.00227273 
r205 1578 1082 3 
r206 1578 1080 0.666667 
r207 1579 1078 1.5 
r208 1581 1076 1.5 
r209 1582 1074 3 
r210 1582 1072 3 
r211 1582 1070 2 
r212 1068 1546 0.0620926 
r213 1542 1068 0.0688218 
r214 1573 1068 0.0025 
r215 1062 1100 3.77358e-05 
r216 1060 1110 3.84615e-05 
r217 1052 1120 0.117559 
r218 1051 1052 0.119812 
r219 1051 1058 0.181784 
r220 1050 1072 0.0101408 
r221 1049 1070 0.122066 
r222 1048 1085 0.0616822 
r223 1047 1048 0.08 
r224 1047 1066 0.274084 
r225 976 978 0.0829907 
r226 976 1123 0.1 
r227 978 973 0.159252 
r228 973 985 0.159252 
r229 973 976 0.0291589 
r230 965 973 0.159252 
r231 962 1076 1.5 
r232 958 962 0.793846 
r233 955 958 0.842637 
r234 955 1078 1.5 
r235 947 951 0.55145 
r236 944 947 0.585344 
r237 936 940 0.55145 
r238 933 936 0.585344 
r239 925 929 0.55145 
r240 922 925 0.585344 
r241 918 1112 1.5 
r242 914 918 0.55145 
r243 911 914 0.585344 
r244 911 1102 1.5 
r245 907 1111 1.5 
r246 903 907 0.55145 
r247 900 903 0.585344 
r248 900 1101 1.5 
r249 896 1110 1.5 
r250 892 896 0.793846 
r251 889 892 0.842637 
r252 889 1100 1.5 
r253 884 1092 0.2 
r254 973 884 0.0391734 
r255 867 1087 0.185047 
r256 1085 867 0.0930841 
r257 865 867 0.2 
r258 865 973 0.0397569 
r259 855 1080 0.231776 
r260 1092 855 0.232523 
r261 1578 855 1 
r262 944 853 1.5 
r263 853 1078 0.261509 
r264 1579 853 1.5 
r265 951 851 1.5 
r266 851 1076 0.266538 
r267 1581 851 1.5 
r268 1582 849 1 
r269 847 1092 0.231028 
r270 1082 847 0.278131 
r271 1578 847 0.6 
r272 933 845 1.5 
r273 845 853 0.273962 
r274 1579 845 1.5 
r275 940 843 1.5 
r276 843 851 0.279231 
r277 1581 843 1.5 
r278 841 1072 0.279437 
r279 1074 841 0.279437 
r280 1582 841 0.6 
r281 839 1082 0.139065 
r282 1088 839 0.683365 
r283 1578 839 2 
r284 922 837 1.5 
r285 837 845 0.273962 
r286 1102 837 0.273962 
r287 1579 837 1.5 
r288 929 835 1.5 
r289 835 843 0.279231 
r290 1112 835 0.279231 
r291 1581 835 1.5 
r292 833 1074 0.232864 
r293 1123 833 0.139343 
r294 1582 833 0.857143 
r295 830 1087 2 
r296 830 1085 0.666667 
r297 830 1066 0.666667 
r298 1568 830 0.0165962 
r299 830 1088 0.666667 
r300 828 1101 1.5 
r301 828 1062 1.5 
r302 828 1573 0.0805639 
r303 830 828 0.0404834 
r304 828 1102 1.5 
r305 826 1111 1.5 
r306 826 1060 1.5 
r307 1567 826 0.0330312 
r308 1573 826 0.0694058 
r309 826 1112 1.5 
r310 824 1121 3 
r311 824 1120 0.666667 
r312 824 1058 0.6 
r313 824 1586 0.0532592 
r314 824 1567 0.0241042 
r315 824 1122 0.666667 
r316 814 849 0.0239252 
r317 814 1049 0.04 
r318 812 849 0.135327 
r319 812 1050 0.04 
r320 807 985 0.73271 
r321 806 965 0.737944 
r322 805 973 0.73271 
r323 804 973 0.737944 
r324 801 805 0.0451326 
r325 801 973 2.504 
r326 800 807 0.0451326 
r327 800 973 2.44889 
r328 797 804 0.045921 
r329 797 973 2.687 
r330 796 806 0.045921 
r331 796 973 2.885 
r332 17 1672 1.51848 
r333 16 1465 0.0447329 
r334 16 1672 1.51162 
r335 15 1532 0.0737243 
r336 15 17 0.0447329 
r337 1464 7 0.0447329 
r338 7 1672 1.51848 
r339 6 1463 0.0447329 
r340 6 1672 1.51162 
.ends

.subckt PM_PC3D11U%net_m32_VSSO_res 9 38
c0 39 0 0.697252f
c1 33 0 0.88195f
c2 30 0 0.734969f
c3 24 0 0.0629282f
c4 23 0 0.287503f
c5 22 0 0.0529965f
c6 21 0 1.2684f
c7 20 0 0.852046f
r8 33 39 2.46349 
r9 33 38 1.8 
r10 29 30 0.987826 
r11 25 39 0.596923 
r12 23 25 0.0472932 
r13 23 24 0.351765 
r14 21 29 0.0468981 
r15 21 22 2.02471 
r16 20 24 0.0446983 
r17 19 22 0.0446983 
r18 19 20 1.4 
r19 30 9 5.56667 
.ends

.subckt PM_PC3D11U%VSS 813 884 906 945 958 970 973 979
c0 979 0 88.7462f
c1 970 0 47.5173f
c2 957 0 54.9073f
c3 955 0 2.3768f
c4 942 0 0.609139f
c5 923 0 2.51215f
c6 917 0 12.4221f
c7 916 0 1.77825f
c8 903 0 1.88751f
c9 895 0 15.2279f
c10 881 0 1.45648f
c11 878 0 2.50793f
c12 841 0 25.3375f
c13 828 0 0.0691108f
c14 827 0 0.0657389f
c15 826 0 5.86662f
c16 825 0 0.745402f
c17 824 0 0.269279f
c18 821 0 0.0372194f
c19 813 0 2.07055f
c20 811 0 6.7745f
c21 810 0 0.218207f
c22 808 0 0.69473f
c23 801 0 8.61447f
c24 799 0 0.255493f
c25 798 0 0.0856199f
c26 797 0 1.18476f
c27 692 0 1.98475f
c28 684 0 1.40824f
c29 682 0 0.211431f
c30 680 0 0.271526f
c31 677 0 25.0969f
c32 672 0 1.0863f
c33 671 0 6.52093f
c34 665 0 2.03682f
c35 661 0 0.135881f
c36 660 0 2.4667f
c37 659 0 0.116709f
c38 658 0 2.26572f
c39 573 0 0.162892f
c40 571 0 0.72248f
c41 569 0 0.203897f
c42 544 0 2.94311f
c43 530 0 3.05953f
c44 528 0 0.031054f
c45 524 0 6.24623f
c46 523 0 0.161087f
c47 508 0 5.68764f
c48 505 0 3.2536f
r49 977 979 0.000702051 
r50 976 977 0.0832563 
r51 973 976 0.000703354 
r52 969 970 0.00318245 
r53 966 967 0.167059 
r54 965 966 0.0632503 
r55 964 965 0.065324 
r56 963 964 0.0141176 
r57 962 963 0.00135593 
r58 955 969 0.461538 
r59 949 966 0.0535714 
r60 947 964 1.5 
r61 947 949 1.612 
r62 942 945 0.045 
r63 942 965 0.666667 
r64 923 962 0.6 
r65 921 957 0.0297924 
r66 921 923 3.23529 
r67 916 957 0.0158586 
r68 916 917 1.0295 
r69 910 969 0.00119641 
r70 967 910 0.110269 
r71 908 910 0.428571 
r72 906 908 0.189 
r73 903 906 0.013 
r74 903 977 0.131579 
r75 899 900 0.570964 
r76 898 899 1.12284 
r77 895 898 0.628223 
r78 895 967 0.3 
r79 888 962 0.0882951 
r80 958 888 0.00438684 
r81 886 888 0.428571 
r82 884 886 0.189 
r83 881 884 0.013 
r84 881 976 0.131579 
r85 951 878 1 
r86 840 875 0.02 
r87 840 841 0.9662 
r88 826 949 2.7305 
r89 826 827 0.0338756 
r90 821 947 1.283 
r91 820 828 0.0338756 
r92 819 827 0.0338756 
r93 816 828 0.00880368 
r94 815 827 0.00880368 
r95 813 870 2.59036 
r96 951 813 1.07807 
r97 816 813 0.88 
r98 815 813 1.064 
r99 812 957 0.0158586 
r100 812 813 1.9975 
r101 811 828 0.0338756 
r102 824 810 0.0632911 
r103 810 808 0.0574488 
r104 807 821 0.0448201 
r105 804 955 1.518 
r106 803 955 0.426 
r107 801 870 1.08482 
r108 799 951 1.06072 
r109 798 917 0.0425 
r110 797 798 0.0448201 
r111 797 807 2.13041 
r112 811 694 0.592 
r113 813 694 1.93 
r114 692 863 3 
r115 863 684 0.29193 
r116 899 684 1.5 
r117 694 682 3 
r118 898 682 3 
r119 680 870 3 
r120 900 680 3 
r121 677 892 1.1314 
r122 677 963 0.125 
r123 676 878 0.0075 
r124 875 676 0.056 
r125 892 676 0.24 
r126 674 825 0.102486 
r127 674 824 0.0155975 
r128 841 674 1 
r129 672 820 0.6415 
r130 804 672 0.0446983 
r131 671 819 0.6415 
r132 803 671 0.0446983 
r133 670 692 0.831219 
r134 669 692 0.572683 
r135 664 665 1.37048 
r136 661 670 0.0448242 
r137 661 662 0.678222 
r138 660 665 0.0447675 
r139 660 662 0.650667 
r140 659 669 0.0446983 
r141 658 664 0.0447067 
r142 658 659 1.45854 
r143 572 573 0.147619 
r144 568 569 0.14988 
r145 801 568 0.0380723 
r146 565 567 0.143333 
r147 799 564 0.0385542 
r148 562 564 0.14506 
r149 813 561 0.159 
r150 544 813 0.159 
r151 543 573 0.02 
r152 543 561 1.247 
r153 542 569 0.02 
r154 542 544 1.243 
r155 813 541 0.192 
r156 539 813 0.192 
r157 538 539 0.342 
r158 813 538 0.192 
r159 536 813 0.192 
r160 535 536 0.342 
r161 813 535 0.192 
r162 533 813 0.192 
r163 532 533 0.342 
r164 813 532 0.192 
r165 530 813 0.192 
r166 529 572 0.02 
r167 529 541 1.214 
r168 528 571 0.04 
r169 528 530 0.243 
r170 526 568 0.02 
r171 526 571 0.938734 
r172 524 572 0.0380952 
r173 524 825 4.80524 
r174 523 808 0.555238 
r175 523 567 0.0380952 
r176 813 519 0.159 
r177 517 813 0.159 
r178 516 517 0.408 
r179 813 516 0.159 
r180 514 813 0.159 
r181 513 514 0.408 
r182 813 513 0.159 
r183 511 813 0.159 
r184 510 511 0.408 
r185 813 510 0.159 
r186 508 813 0.159 
r187 507 567 0.02 
r188 507 519 1.247 
r189 506 564 0.02 
r190 506 508 1.243 
r191 505 565 0.02 
r192 504 562 0.02 
r193 504 505 4.69271 
.ends

.subckt PM_PC3D11U%U14_MN4$11_gate 98 103 219 224 340 345 410 415 420 425 430
+ 435 449
c0 612 0 0.264624f
c1 608 0 0.432377f
c2 603 0 0.431723f
c3 598 0 0.431999f
c4 593 0 0.433563f
c5 588 0 0.434391f
c6 576 0 2.53433f
c7 572 0 0.236421f
c8 554 0 0.0501222f
c9 550 0 0.126441f
c10 548 0 1.09628f
c11 543 0 1.10468f
c12 538 0 1.09628f
c13 533 0 1.12251f
c14 529 0 0.847498f
c15 523 0 0.859973f
c16 521 0 0.170165f
c17 519 0 0.402049f
c18 516 0 0.430085f
c19 515 0 0.863899f
c20 514 0 0.804241f
c21 513 0 0.877326f
c22 511 0 0.872867f
c23 505 0 0.156445f
c24 504 0 8.9327f
c25 501 0 7.03755f
c26 499 0 0.14249f
c27 498 0 0.267597f
c28 496 0 0.474738f
c29 492 0 15.65f
c30 487 0 1.41515f
c31 485 0 0.126896f
c32 480 0 0.113594f
c33 474 0 0.680018f
c34 473 0 0.0631592f
c35 464 0 0.535213f
c36 456 0 0.535717f
c37 450 0 0.300832f
c38 449 0 0.233998f
c39 442 0 0.16744f
c40 441 0 0.607864f
c41 440 0 0.168715f
c42 439 0 0.608092f
c43 438 0 0.169627f
c44 437 0 0.540411f
c45 435 0 3.10111f
c46 430 0 3.04886f
c47 425 0 3.04886f
c48 420 0 3.04886f
c49 415 0 3.04886f
c50 410 0 3.10222f
c51 357 0 0.974632f
c52 345 0 3.04886f
c53 344 0 0.168601f
c54 340 0 3.04886f
c55 339 0 0.169285f
c56 236 0 0.971967f
c57 224 0 3.04886f
c58 223 0 0.168289f
c59 219 0 3.04886f
c60 218 0 0.169346f
c61 115 0 0.975149f
c62 103 0 3.04886f
c63 102 0 0.169399f
c64 98 0 3.04886f
c65 97 0 0.169627f
r66 570 572 6 
r67 556 612 0.00341463 
r68 554 556 3 
r69 554 558 0.0138182 
r70 550 552 0.102703 
r71 547 608 0.00439024 
r72 605 547 0.0512195 
r73 545 547 1.5 
r74 545 548 0.117757 
r75 542 603 0.00195122 
r76 600 542 0.0536585 
r77 540 542 1.5 
r78 540 543 0.118253 
r79 537 598 0.000487805 
r80 595 537 0.055122 
r81 535 537 1.5 
r82 535 538 0.11974 
r83 531 593 0.00292683 
r84 590 531 0.0526829 
r85 529 531 1.5 
r86 529 533 0.0678788 
r87 525 588 0.00536585 
r88 585 525 0.0502439 
r89 523 525 1.5 
r90 523 527 0.0693333 
r91 558 521 0.0697717 
r92 554 519 0.0138182 
r93 518 519 0.141735 
r94 517 550 0.02 
r95 516 521 0.0586021 
r96 516 517 0.36 
r97 545 515 0.0999055 
r98 514 552 0.02 
r99 514 515 1.035 
r100 540 513 0.100897 
r101 548 513 1.437 
r102 535 511 0.0989138 
r103 543 511 1.448 
r104 509 533 0.0200093 
r105 538 509 1.437 
r106 507 527 0.02 
r107 533 507 1.472 
r108 504 518 0.0586021 
r109 504 505 10.913 
r110 501 572 6 
r111 499 501 3.75099 
r112 581 498 0.0521951 
r113 496 498 3 
r114 495 499 0.0509474 
r115 495 496 0.00866667 
r116 494 505 0.0610788 
r117 494 496 0.142 
r118 570 492 15.6586 
r119 490 492 6 
r120 487 490 1.388 
r121 487 576 6 
r122 484 576 3.376 
r123 480 485 0.0933197 
r124 473 484 0.0447517 
r125 485 473 0.157176 
r126 480 449 0.0666667 
r127 442 474 1.85294 
r128 441 464 5.05882 
r129 440 464 5.05882 
r130 439 456 5.05882 
r131 438 456 5.05882 
r132 437 450 1.85294 
r133 432 442 3.88985 
r134 432 435 183.96 
r135 427 441 3.88985 
r136 427 430 183.96 
r137 422 440 3.88985 
r138 422 425 183.96 
r139 417 439 3.88985 
r140 417 420 183.96 
r141 412 438 3.88985 
r142 412 415 183.96 
r143 407 437 3.88985 
r144 407 410 183.96 
r145 350 357 5.05882 
r146 349 357 5.05882 
r147 344 350 3.88985 
r148 344 345 183.96 
r149 339 349 3.88985 
r150 339 340 183.96 
r151 464 298 0.00142683 
r152 603 298 3 
r153 357 287 0.00133393 
r154 605 287 3 
r155 262 357 0.0278113 
r156 608 262 3 
r157 474 251 0.00142683 
r158 612 251 3 
r159 229 236 5.05882 
r160 228 236 5.05882 
r161 223 229 3.88985 
r162 223 224 183.96 
r163 218 228 3.88985 
r164 218 219 183.96 
r165 456 177 0.00142683 
r166 593 177 3 
r167 236 166 0.00133393 
r168 595 166 3 
r169 141 236 0.0278113 
r170 598 141 3 
r171 464 130 0.0277856 
r172 600 130 3 
r173 108 115 5.05882 
r174 107 115 5.05882 
r175 102 108 3.88985 
r176 102 103 183.96 
r177 97 107 3.88985 
r178 97 98 183.96 
r179 450 56 0.00142683 
r180 581 56 3 
r181 115 45 0.00133393 
r182 585 45 3 
r183 20 115 0.0278113 
r184 588 20 3 
r185 456 9 0.0277856 
r186 590 9 3 
.ends

.subckt PM_PC3D11U%VSSO 170 333 496 539 545 549 746 924 928 935 964 971 983 994
+ 996 1001 1005 1012 1018 1025 1031 1043 1086 1092 1096 1102
c0 1102 0 31.3229f
c1 1089 0 3.52205f
c2 1086 0 9.21319f
c3 1080 0 7.92488f
c4 1078 0 6.96209f
c5 1072 0 6.96173f
c6 1067 0 6.96175f
c7 1061 0 6.96188f
c8 1056 0 6.96027f
c9 1047 0 0.0948847f
c10 1043 0 0.00199756f
c11 1038 0 8.95235f
c12 1031 0 0.319472f
c13 1018 0 1.46273f
c14 1005 0 0.842775f
c15 1001 0 1.45157f
c16 999 0 1.97902f
c17 996 0 0.00104108f
c18 994 0 8.25608e-19
c19 992 0 8.96457f
c20 981 0 7.84947f
c21 977 0 1.27875f
c22 967 0 1.65601f
c23 964 0 58.2621f
c24 931 0 1.33521f
c25 928 0 10.6369f
c26 921 0 0.191286f
c27 919 0 0.193061f
c28 911 0 0.0866327f
c29 909 0 0.123412f
c30 907 0 0.0413269f
c31 906 0 0.324847f
c32 905 0 2.31605f
c33 898 0 17.0061f
c34 897 0 2.34752f
c35 895 0 0.0825798f
c36 894 0 0.199022f
c37 892 0 0.0941861f
c38 890 0 1.34808f
c39 889 0 0.0220246f
c40 886 0 0.107983f
c41 885 0 0.0484324f
c42 884 0 1.50948f
c43 882 0 0.0594287f
c44 881 0 0.293756f
c45 873 0 12.1933f
c46 872 0 0.725625f
c47 869 0 2.24828f
c48 865 0 0.948476f
c49 859 0 0.708327f
c50 855 0 3.24323f
c51 853 0 0.383003f
c52 852 0 0.713156f
c53 851 0 0.297488f
c54 850 0 3.26283f
c55 849 0 0.383249f
c56 847 0 0.497257f
c57 845 0 0.0157313f
c58 844 0 0.567691f
c59 840 0 0.0689962f
c60 839 0 0.351455f
c61 806 0 0.122915f
c62 805 0 8.73234f
c63 775 0 0.269574f
c64 771 0 7.03694f
c65 769 0 0.146306f
c66 612 0 0.101304f
c67 608 0 0.369866f
c68 604 0 0.578767f
c69 596 0 0.363647f
c70 594 0 0.13349f
c71 592 0 0.0273477f
c72 590 0 0.237955f
c73 578 0 0.661332f
c74 509 0 5.37124f
c75 411 0 14.0382f
c76 361 0 14.0387f
c77 248 0 14.0387f
c78 198 0 14.0383f
c79 35 0 14.0362f
c80 10 0 0.146306f
r81 1100 1102 0.00282778 
r82 1099 1100 0.355444 
r83 1096 1099 0.00283333 
r84 1091 1093 0.00445269 
r85 1091 1092 0.02 
r86 1089 1091 0.00667904 
r87 1049 1050 0.0140639 
r88 1042 1043 0.0126606 
r89 1080 1040 0.0113761 
r90 1038 1040 0.0638298 
r91 1035 1084 2 
r92 1031 1035 0.000761905 
r93 994 1042 0.013211 
r94 1038 994 0.000917431 
r95 992 994 0.000913242 
r96 992 1049 0.0638298 
r97 982 983 0.02 
r98 981 1049 0.0113242 
r99 979 981 0.0327869 
r100 979 982 0.0186572 
r101 977 979 0.029258 
r102 974 1100 0.357143 
r103 971 974 0.21 
r104 969 1086 0.00544385 
r105 1084 969 0.0327273 
r106 967 969 1 
r107 967 971 0.445 
r108 962 964 0.00612761 
r109 962 1080 0.0327869 
r110 1074 960 0.00301483 
r111 960 1078 0.00301741 
r112 958 960 0.0266667 
r113 958 962 0.0287785 
r114 1025 957 0.130435 
r115 957 1072 0.00301741 
r116 1069 957 0.00301741 
r117 955 957 0.0266667 
r118 955 958 0.0242129 
r119 1063 954 0.00301483 
r120 954 1067 0.00301741 
r121 952 954 0.0266667 
r122 952 955 0.0242129 
r123 951 952 0.000615582 
r124 1012 950 0.130435 
r125 950 1061 0.00301741 
r126 1058 950 0.00301741 
r127 948 950 0.0266667 
r128 948 951 0.0235973 
r129 1052 947 0.00301483 
r130 947 1056 0.00301741 
r131 945 947 0.0266667 
r132 945 948 0.0242129 
r133 944 977 0.02 
r134 944 945 0.0277012 
r135 982 941 0.427466 
r136 938 1099 0.357143 
r137 935 938 0.21 
r138 933 1095 0.148897 
r139 1093 933 0.0151391 
r140 931 933 1 
r141 931 935 0.445 
r142 920 1084 0.125722 
r143 920 921 0.00180503 
r144 911 1047 0.0410689 
r145 909 911 3 
r146 908 909 0.148421 
r147 906 908 0.044878 
r148 906 907 0.407059 
r149 905 907 0.0446983 
r150 904 921 0.0865289 
r151 904 905 3.68941 
r152 1018 903 0.75 
r153 901 903 0.545455 
r154 900 901 0.0394652 
r155 899 919 0.00185772 
r156 899 900 0.080107 
r157 898 921 0.00180503 
r158 898 901 0.172781 
r159 896 919 0.0857909 
r160 896 897 3.63314 
r161 894 897 0.0448303 
r162 894 895 0.199481 
r163 891 895 0.0447008 
r164 891 892 0.0831579 
r165 889 890 0.109474 
r166 885 886 0.135 
r167 884 885 0.0448391 
r168 883 884 2.75862 
r169 881 883 0.044715 
r170 881 882 0.466667 
r171 1005 880 0.04 
r172 878 880 0.75 
r173 1001 877 0.365 
r174 875 877 0.6 
r175 875 878 0.0226738 
r176 874 1089 0.02 
r177 874 875 0.105134 
r178 873 919 0.00185772 
r179 873 878 0.0460963 
r180 872 882 0.0450432 
r181 1095 872 1.29371 
r182 869 999 6 
r183 889 865 0.0429996 
r184 865 869 0.24 
r185 861 1043 0.230275 
r186 859 1038 0.210275 
r187 856 999 3.78429 
r188 854 996 0.229041 
r189 854 855 0.0863581 
r190 852 992 0.209132 
r191 852 853 0.0863581 
r192 861 850 0.0861375 
r193 850 851 0.132033 
r194 859 849 0.0861375 
r195 845 847 0.201086 
r196 845 844 0.0421961 
r197 1047 844 1.01412 
r198 839 856 0.0446983 
r199 839 840 0.542857 
r200 836 840 0.0449572 
r201 806 994 0.128 
r202 805 851 0.0473573 
r203 805 994 0.126 
r204 775 806 0.0473573 
r205 855 775 0.132033 
r206 771 994 0.126 
r207 770 994 0.128 
r208 769 770 0.0473573 
r209 769 853 0.250407 
r210 847 746 5.56667 
r211 596 608 0.370526 
r212 900 596 1.5 
r213 594 612 0.04 
r214 892 594 3 
r215 592 604 0.0494737 
r216 890 592 2 
r217 836 590 0.2775 
r218 886 590 6 
r219 612 578 0.1888 
r220 608 549 5.56667 
r221 578 545 5.56667 
r222 539 604 5.54444 
r223 512 928 0.0419737 
r224 924 512 0.0413851 
r225 951 512 0.00128205 
r226 941 509 2.21804 
r227 509 1093 0.6 
r228 960 496 0.130435 
r229 1025 411 0.00313778 
r230 1072 411 0.0652174 
r231 496 401 0.0031351 
r232 1074 401 0.0652174 
r233 361 496 0.00314046 
r234 1078 361 0.0652174 
r235 1040 350 0.0141284 
r236 350 1042 0.0652174 
r237 954 333 0.130435 
r238 1012 248 0.00313778 
r239 1061 248 0.0652174 
r240 333 238 0.0031351 
r241 1063 238 0.0652174 
r242 198 333 0.00314046 
r243 1067 198 0.0652174 
r244 188 1025 0.00313778 
r245 1069 188 0.0652174 
r246 947 170 0.130435 
r247 85 996 0.0126027 
r248 994 85 0.0131507 
r249 1050 85 0.0652174 
r250 170 75 0.0031351 
r251 1052 75 0.0652174 
r252 35 170 0.00314046 
r253 1056 35 0.0652174 
r254 25 1012 0.00313778 
r255 1058 25 0.0652174 
r256 10 849 0.250407 
r257 10 771 0.0473573 
.ends

.subckt PM_PC3D11U%CIN 14 19 26 58 101 145
c0 142 0 0.112303f
c1 140 0 7.07074f
c2 131 0 0.420752f
c3 123 0 15.6649f
c4 115 0 4.21592f
c5 110 0 0.176384f
c6 106 0 0.143541f
c7 104 0 5.7193f
c8 98 0 0.0723692f
c9 95 0 0.0379464f
c10 94 0 3.153f
c11 93 0 3.30766f
c12 91 0 0.0895149f
c13 85 0 1.4123f
c14 84 0 0.0898897f
c15 81 0 0.0375884f
c16 80 0 0.855486f
c17 79 0 0.0338006f
c18 75 0 1.37568f
c19 72 0 0.0345401f
c20 71 0 0.568273f
c21 67 0 7.74777f
c22 61 0 0.246801f
c23 60 0 0.18745f
c24 58 0 0.582869f
c25 41 0 1.65143f
c26 37 0 0.0360401f
c27 35 0 0.0187198f
c28 30 0 0.418875f
c29 26 0 1.19364f
c30 24 0 0.062646f
c31 23 0 0.3608f
c32 19 0 1.02343f
c33 14 0 0.655992f
r34 142 145 0.0207123 
r35 142 143 0.0568712 
r36 121 123 10.4343 
r37 119 121 4.96571 
r38 112 140 6 
r39 131 110 6 
r40 108 110 6 
r41 108 112 4.46429 
r42 123 106 6 
r43 104 106 6 
r44 104 108 6.27286 
r45 98 101 0.0207123 
r46 98 142 6 
r47 96 140 11.4788 
r48 94 96 0.04509 
r49 94 95 7.86286 
r50 126 93 4.69857 
r51 91 93 6 
r52 143 91 0.285714 
r53 89 95 0.0446983 
r54 89 91 0.0457143 
r55 82 84 0.107847 
r56 82 126 6 
r57 80 84 0.0448046 
r58 80 81 1.56857 
r59 79 81 0.0448488 
r60 78 79 0.103226 
r61 75 119 6 
r62 73 75 2.17429 
r63 71 78 0.0448488 
r64 71 72 1.35143 
r65 115 69 7.37143 
r66 67 69 6 
r67 66 72 0.0446983 
r68 66 67 14.7657 
r69 63 115 6 
r70 61 73 0.0446983 
r71 61 63 0.3 
r72 59 131 0.549677 
r73 59 60 0.00955498 
r74 57 60 0.0329896 
r75 57 58 0.5 
r76 54 58 0.9375 
r77 85 41 6 
r78 85 38 1.8075 
r79 38 121 6 
r80 35 41 2.64 
r81 31 37 0.029971 
r82 30 54 0.0450043 
r83 30 31 0.441081 
r84 25 37 0.0122637 
r85 25 26 0.9375 
r86 23 37 0.029971 
r87 23 24 0.441081 
r88 18 24 0.0450043 
r89 18 19 0.9375 
r90 13 35 0.0403741 
r91 13 14 0.536471 
.ends

.subckt PM_PC3D11U%PAD 21 50 91 120 161 190 247 271 295 319 349 355 380 488 507
+ 514
c0 522 0 26.8791f
c1 515 0 84.0351f
c2 514 0 64.3341f
c3 511 0 159.215f
c4 506 0 1.02561f
c5 499 0 9.97243f
c6 494 0 12.958f
c7 485 0 0.118304f
c8 482 0 203.67f
c9 468 0 15.3329f
c10 450 0 3.86504f
c11 381 0 128.349f
c12 380 0 1.04909f
c13 355 0 13.2018f
c14 349 0 13.172f
c15 319 0 13.1699f
c16 295 0 13.1832f
c17 271 0 13.4186f
c18 247 0 13.1699f
c19 212 0 7.52869f
c20 190 0 2.9853f
c21 173 0 6.78371f
c22 161 0 2.98495f
c23 144 0 6.78371f
c24 120 0 2.9853f
c25 103 0 6.78371f
c26 91 0 2.9853f
c27 74 0 6.78371f
c28 50 0 2.98608f
c29 33 0 6.78371f
c30 21 0 2.9853f
c31 4 0 6.78371f
r32 522 523 0.118407 
r33 521 522 0.118407 
r34 520 521 0.056883 
r35 519 520 0.061524 
r36 518 519 0.118407 
r37 517 518 0.0830354 
r38 516 517 0.0353716 
r39 514 515 0.0124825 
r40 512 514 0.000593149 
r41 511 512 0.0669731 
r42 506 507 0.00916 
r43 499 517 0.0545455 
r44 494 520 0.015 
r45 485 488 0.00916 
r46 485 506 2 
r47 481 494 0.0264274 
r48 481 482 0.147774 
r49 475 476 0.00752787 
r50 474 475 0.021023 
r51 472 474 0.000537705 
r52 472 511 0.00162999 
r53 470 472 0.000537705 
r54 468 470 0.0285508 
r55 459 506 0.1388 
r56 458 459 0.132996 
r57 457 458 0.0171733 
r58 456 457 0.0171733 
r59 455 456 0.0171733 
r60 454 455 0.0171733 
r61 453 454 0.0171733 
r62 450 499 0.202116 
r63 482 383 0.0288462 
r64 381 453 0.00818451 
r65 381 383 0.00646891 
r66 450 380 0.0147368 
r67 344 349 0.0072093 
r68 453 344 0.0566038 
r69 342 355 0.0072093 
r70 458 342 0.0566038 
r71 315 319 0.0072093 
r72 457 315 0.0566038 
r73 291 295 0.0072093 
r74 456 291 0.0566038 
r75 267 271 0.0072093 
r76 455 267 0.0566038 
r77 243 247 0.0072093 
r78 454 243 0.0566038 
r79 223 226 0.0022831 
r80 476 223 0.0375475 
r81 223 512 0.00547945 
r82 474 222 0.00210084 
r83 220 222 0.000537705 
r84 470 220 0.00210084 
r85 222 218 0.0105115 
r86 475 218 0.00712251 
r87 214 226 0.0187738 
r88 218 214 0.00376393 
r89 476 214 0.00712251 
r90 212 220 0.0142754 
r91 468 212 0.00356125 
r92 515 197 0.345778 
r93 196 522 0.0220132 
r94 196 197 0.319822 
r95 190 177 0.00249413 
r96 197 177 0.0425532 
r97 173 190 0.00249413 
r98 197 173 0.0425532 
r99 515 168 0.345778 
r100 167 523 0.0220132 
r101 167 168 0.319822 
r102 161 148 0.00249413 
r103 168 148 0.0425532 
r104 144 161 0.00249413 
r105 168 144 0.0425532 
r106 515 127 0.345778 
r107 126 519 0.0220132 
r108 126 127 0.319822 
r109 120 107 0.00249413 
r110 127 107 0.0425532 
r111 103 120 0.00249413 
r112 127 103 0.0425532 
r113 515 98 0.345778 
r114 97 521 0.0220132 
r115 97 98 0.319822 
r116 91 78 0.00249413 
r117 98 78 0.0425532 
r118 74 91 0.00249413 
r119 98 74 0.0425532 
r120 515 57 0.345778 
r121 56 516 0.0220132 
r122 56 57 0.319822 
r123 50 37 0.00249413 
r124 57 37 0.0425532 
r125 33 50 0.00249413 
r126 57 33 0.0425532 
r127 515 28 0.345778 
r128 27 518 0.0220132 
r129 27 28 0.319822 
r130 21 8 0.00249413 
r131 28 8 0.0425532 
r132 4 21 0.00249413 
r133 28 4 0.0425532 
.ends

.subckt PM_PC3D11U%U14_pgate_tol 18 37 68 87 118 137 168 187 298 300 302 304
+ 359 362 368 377 382 402 417 469
c0 687 0 0.414045f
c1 684 0 0.3136f
c2 682 0 0.314371f
c3 681 0 0.314371f
c4 679 0 0.314371f
c5 678 0 0.299846f
c6 676 0 0.314762f
c7 675 0 0.314371f
c8 673 0 0.314371f
c9 672 0 0.326634f
c10 669 0 7.10784f
c11 667 0 9.12312f
c12 657 0 0.173139f
c13 655 0 9.131f
c14 652 0 0.0821611f
c15 646 0 0.405412f
c16 643 0 0.309607f
c17 641 0 0.309607f
c18 640 0 0.309607f
c19 638 0 0.309607f