* File: pc3x13.dist.sp.pex
* Created: Sun Jul  4 12:55:13 2010
* Program "Calibre xRC"
* Version "v2008.4_19.14"
* Nominal Temperature: 27C
* Circuit Temperature: 27C
* 
.subckt PM_PC3X13%Z 14 23 32 37 103 133
c0 130 0 0.136174f
c1 128 0 8.82849f
c2 122 0 15.8043f
c3 108 0 0.175289f
c4 106 0 7.12029f
c5 100 0 0.0990467f
c6 97 0 0.0427697f
c7 96 0 3.61003f
c8 95 0 5.02997f
c9 93 0 0.10743f
c10 80 0 4.49702f
c11 74 0 0.621899f
c12 67 0 0.971875f
c13 65 0 2.73776f
c14 62 0 0.188372f
c15 60 0 0.0382854f
c16 56 0 8.87582f
c17 47 0 0.815239f
c18 46 0 0.0360137f
c19 43 0 0.0732458f
c20 37 0 2.35443f
c21 36 0 0.0651423f
c22 32 0 1.42735f
c23 31 0 0.0313385f
c24 30 0 0.182262f
c25 28 0 0.0963291f
c26 23 0 0.970312f
c27 21 0 0.0685632f
c28 20 0 0.258227f
c29 19 0 0.0420185f
c30 18 0 0.295244f
c31 14 0 1.39199f
r32 130 133 0.0207123 
r33 130 131 0.0464795 
r34 120 122 4.89333 
r35 118 120 8.93333 
r36 111 128 6 
r37 122 108 6 
r38 106 108 6 
r39 106 111 8.32125 
r40 100 103 0.0207123 
r41 100 130 6 
r42 98 128 12.5875 
r43 96 98 0.0446983 
r44 96 97 5.8425 
r45 114 95 7.53571 
r46 93 95 6 
r47 131 93 0.245 
r48 91 97 0.0446983 
r49 91 93 0.0725 
r50 72 74 6 
r51 70 72 1.7075 
r52 70 120 6 
r53 65 67 6 
r54 65 70 2.085 
r55 62 114 6 
r56 60 62 0.47 
r57 80 58 8.00857 
r58 56 58 6 
r59 55 60 0.0446983 
r60 55 56 14.6143 
r61 52 80 6 
r62 47 118 6 
r63 47 52 1.40571 
r64 45 74 0.815238 
r65 42 67 1.27 
r66 41 43 0.1125 
r67 41 42 0.02 
r68 36 37 2.2925 
r69 31 32 1.7775 
r70 30 36 0.0446983 
r71 29 46 0.0338756 
r72 29 30 0.2475 
r73 28 46 0.0338756 
r74 27 31 0.0446983 
r75 27 28 0.1825 
r76 22 43 0.02 
r77 22 23 1.2425 
r78 21 45 0.0447019 
r79 20 46 0.00880368 
r80 20 21 0.39375 
r81 18 41 0.04 
r82 18 19 0.3975 
r83 13 19 0.0446983 
r84 13 14 1.2425 
.ends

.subckt PM_PC3X13%EN 74 76 78 81 106 141
c0 140 0 0.0461595f
c1 137 0 10.4984f
c2 123 0 11.629f
c3 112 0 16.1731f
c4 110 0 0.210006f
c5 108 0 7.66976f
c6 103 0 0.137938f
c7 101 0 0.104545f
c8 99 0 0.0604908f
c9 98 0 3.26682f
c10 89 0 1.26658f
c11 81 0 0.698449f
c12 78 0 0.871596f
c13 76 0 0.0812915f
c14 74 0 0.0738467f
c15 51 0 0.104138f
c16 47 0 1.43369f
c17 38 0 3.27763f
c18 35 0 0.32489f
c19 29 0 0.12247f
c20 28 0 0.912461f
c21 3 0 0.839707f
c22 1 0 0.758719f
r23 121 123 7.34194 
r24 119 121 0.981936 
r25 116 137 6 
r26 112 116 7.53 
r27 123 110 6 
r28 108 110 6 
r29 108 112 2.325 
r30 103 141 0.0207123 
r31 103 140 0.0464795 
r32 101 103 6 
r33 101 106 0.0207123 
r34 100 137 13.2697 
r35 98 100 0.044713 
r36 98 99 5.775 
r37 96 99 0.0446983 
r38 96 140 0.0875 
r39 68 78 85 
r40 89 68 2.42502 
r41 81 53 0.672 
r42 51 53 6 
r43 49 51 0.0208 
r44 45 47 6 
r45 43 45 3.22125 
r46 43 121 6 
r47 89 40 0.9225 
r48 38 40 6 
r49 38 43 0.565 
r50 35 119 6 
r51 33 49 0.02 
r52 33 35 0.505 
r53 32 47 1.63683 
r54 28 32 0.0447019 
r55 28 29 0.975 
r56 4 29 6.91667 
r57 3 76 99.5833 
r58 3 4 3.35237 
r59 2 29 6.41667 
r60 1 74 99.5833 
r61 1 2 3.35237 
.ends

.subckt PM_PC3X13%U22_PADR 177 181 185 189 193 197 279 281 321 323 363 365 421
+ 423 692 722 766
c0 795 0 16.9868f
c1 785 0 15.3395f
c2 772 0 9.25359f
c3 766 0 0.00286014f
c4 755 0 4.13621f
c5 753 0 0.224749f
c6 752 0 0.443885f
c7 749 0 7.42558f
c8 747 0 5.70457f
c9 742 0 5.94688f
c10 739 0 0.185462f
c11 738 0 7.55194f
c12 737 0 16.3797f
c13 734 0 16.7013f
c14 730 0 5.78289f
c15 728 0 2.83317f
c16 725 0 10.0857f
c17 724 0 0.403961f
c18 723 0 5.82076f
c19 722 0 0.0020484f
c20 692 0 1.70226f
c21 652 0 3.30959f
c22 650 0 0.207035f
c23 648 0 0.18339f
c24 643 0 0.224507f
c25 640 0 15.619f
c26 607 0 0.095905f
c27 606 0 0.095905f
c28 605 0 0.095905f
c29 604 0 0.0749116f
c30 603 0 0.0506444f
c31 601 0 0.276839f
c32 595 0 0.225898f
c33 590 0 6.59731f
c34 587 0 0.341265f
c35 585 0 0.0835551f
c36 584 0 0.311011f
c37 583 0 0.357488f
c38 580 0 0.251892f
c39 577 0 0.575368f
c40 575 0 0.258075f
c41 572 0 0.894657f
c42 570 0 0.258075f
c43 567 0 0.45279f
c44 565 0 0.228269f
c45 562 0 0.192453f
c46 560 0 3.19571f
c47 559 0 0.852026f
c48 557 0 0.10753f
c49 555 0 0.107639f
c50 554 0 5.81842f
c51 553 0 0.0727485f
c52 552 0 5.50477f
c53 550 0 0.493102f
c54 548 0 5.41683f
c55 543 0 0.0446924f
c56 542 0 0.335749f
c57 540 0 8.11486f
c58 538 0 6.27502f
c59 528 0 0.0523821f
c60 527 0 0.0523821f
c61 526 0 0.0523821f
c62 525 0 0.0523821f
c63 524 0 0.0537789f
c64 523 0 0.0523821f
c65 522 0 0.0523821f
c66 518 0 0.510663f
c67 517 0 0.379645f
c68 514 0 0.180215f
c69 513 0 0.391021f
c70 510 0 0.626879f
c71 509 0 0.395468f
c72 507 0 0.336251f
c73 505 0 0.409371f
c74 504 0 0.271608f
c75 503 0 0.345009f
c76 502 0 0.696108f
c77 499 0 0.336498f
c78 497 0 0.450338f
c79 496 0 0.255774f
c80 495 0 0.347313f
c81 494 0 0.671932f
c82 491 0 0.334016f
c83 489 0 0.407742f
c84 488 0 0.274324f
c85 487 0 0.659408f
c86 485 0 0.867118f
c87 483 0 0.676335f
c88 481 0 0.868956f
c89 479 0 0.677633f
c90 477 0 0.8748f
c91 475 0 0.676335f
c92 472 0 0.364991f
c93 470 0 0.292352f
c94 468 0 0.292337f
c95 467 0 0.15811f
c96 466 0 0.292356f
c97 464 0 0.29378f
c98 463 0 0.155621f
c99 462 0 0.314642f
c100 460 0 0.291606f
c101 459 0 0.159006f
c102 458 0 0.294981f
c103 457 0 0.99335f
c104 456 0 0.156887f
c105 455 0 1.06044f
c106 454 0 0.15811f
c107 452 0 1.05174f
c108 451 0 0.15811f
c109 449 0 1.06001f
c110 448 0 0.15811f
c111 419 0 5.74604f
c112 415 0 0.307243f
c113 410 0 5.7199f
c114 409 0 0.307787f
c115 397 0 0.326978f
c116 350 0 0.329233f
c117 331 0 5.8659f
c118 329 0 5.86576f
c119 327 0 0.146899f
c120 325 0 0.144908f
c121 308 0 0.329815f
c122 289 0 5.85952f
c123 287 0 5.81159f
c124 285 0 0.146899f
c125 283 0 0.144712f
c126 266 0 0.329233f
c127 247 0 5.8659f
c128 245 0 5.86512f
c129 243 0 0.146899f
c130 241 0 0.146759f
c131 238 0 0.328126f
c132 231 0 0.775746f
c133 226 0 0.325393f
c134 219 0 0.769715f
c135 214 0 0.328585f
c136 207 0 0.773008f
c137 197 0 3.68602f
c138 193 0 3.65527f
c139 189 0 3.65227f
c140 185 0 3.65227f
c141 181 0 3.65227f
c142 177 0 3.67652f
c143 121 0 0.447003f
c144 116 0 0.221006f
c145 106 0 0.150202f
c146 95 0 0.231497f
c147 85 0 0.152217f
c148 79 0 0.444322f
c149 74 0 0.227633f
c150 64 0 0.152217f
c151 53 0 0.227633f
c152 43 0 0.152217f
c153 37 0 0.446423f
c154 32 0 0.224023f
c155 22 0 0.152217f
c156 11 0 0.228015f
c157 1 0 0.153882f
r158 755 772 0.375 
r159 753 755 1.3852 
r160 752 753 0.0446983 
r161 751 752 0.166 
r162 766 749 0.0175207 
r163 747 749 0.115385 
r164 744 747 0.6746 
r165 744 764 0.5 
r166 742 764 0.207375 
r167 740 742 0.5 
r168 739 740 0.518685 
r169 738 751 0.0447559 
r170 738 740 1.92188 
r171 795 737 17.4667 
r172 735 737 3 
r173 785 734 17.4613 
r174 732 734 3 
r175 732 735 0.509247 
r176 728 730 1.5 
r177 728 732 0.373333 
r178 727 739 0.044965 
r179 727 735 0.405591 
r180 726 730 1.67226 
r181 724 726 0.0704055 
r182 724 725 0.159048 
r183 723 725 0.244127 
r184 772 722 0.16686 
r185 692 723 0.0254737 
r186 663 664 0.897297 
r187 662 663 1.03135 
r188 661 662 0.897297 
r189 660 661 1.01838 
r190 659 660 0.897297 
r191 658 659 1.03135 
r192 657 658 0.858378 
r193 785 650 6 
r194 795 648 6 
r195 789 643 6 
r196 789 640 16.5786 
r197 637 664 6 
r198 633 663 6 
r199 629 662 6 
r200 625 661 6 
r201 621 660 6 
r202 617 659 6 
r203 613 658 6 
r204 609 657 6 
r205 652 601 6 
r206 599 601 6 
r207 597 599 6.60308 
r208 597 648 6 
r209 640 595 6 
r210 593 595 6 
r211 593 597 0.490256 
r212 590 593 0.724103 
r213 590 650 6 
r214 586 587 0.16 
r215 584 586 0.0458133 
r216 584 585 0.1976 
r217 582 585 0.0446983 
r218 582 583 0.352 
r219 579 580 0.122424 
r220 578 607 0.0502372 
r221 577 579 0.0482878 
r222 577 578 0.492 
r223 574 607 0.00250111 
r224 574 575 0.122424 
r225 573 606 0.0502372 
r226 572 607 0.0502372 
r227 572 573 1.132 
r228 569 606 0.00250111 
r229 569 570 0.122424 
r230 568 605 0.0502372 
r231 567 606 0.0502372 
r232 567 568 0.492 
r233 564 605 0.00250111 
r234 564 565 0.122424 
r235 563 603 0.0226671 
r236 562 605 0.0502372 
r237 562 563 0.27 
r238 561 604 0.0524434 
r239 560 583 0.0454198 
r240 560 561 3.702 
r241 559 604 0.00374308 
r242 558 603 0.0206062 
r243 558 559 0.574857 
r244 557 603 0.0206062 
r245 556 557 0.0671329 
r246 554 556 0.0524689 
r247 554 555 7.50941 
r248 552 604 0.0524434 
r249 552 553 6.464 
r250 549 555 0.0509257 
r251 549 550 0.243636 
r252 547 553 0.0447005 
r253 547 548 6.34272 
r254 545 643 6 
r255 543 545 0.235224 
r256 542 548 0.0452205 
r257 542 545 0.277015 
r258 540 657 2.69189 
r259 538 540 6 
r260 537 543 0.0448417 
r261 537 538 8.02919 
r262 521 652 2.998 
r263 521 522 0.0338756 
r264 518 517 0.0738409 
r265 517 637 0.612 
r266 514 513 0.0668385 
r267 513 633 0.524571 
r268 510 509 0.0223891 
r269 509 629 0.496216 
r270 505 625 0.46481 
r271 504 507 0.0672195 
r272 504 505 0.02 
r273 502 503 0.0198049 
r274 502 621 0.422069 
r275 497 617 0.390638 
r276 496 499 0.0659512 
r277 496 497 0.02 
r278 494 495 0.024878 
r279 494 613 0.498378 
r280 489 609 0.449756 
r281 488 491 0.0547317 
r282 488 489 0.02 
r283 486 528 0.0338756 
r284 486 487 0.702 
r285 485 528 0.0338756 
r286 484 527 0.0338756 
r287 484 485 0.89 
r288 483 527 0.0338756 
r289 482 526 0.0338756 
r290 482 483 0.72 
r291 481 526 0.0338756 
r292 480 525 0.0338756 
r293 480 481 0.892 
r294 479 525 0.0338756 
r295 478 524 0.0338756 
r296 478 479 0.72 
r297 477 524 0.0338756 
r298 476 523 0.0338756 
r299 476 477 0.892 
r300 475 523 0.0338756 
r301 474 522 0.0338756 
r302 474 475 0.72 
r303 472 487 0.0446983 
r304 472 473 0.44 
r305 470 528 0.00880368 
r306 470 471 0.44 
r307 468 527 0.00880368 
r308 468 469 0.44 
r309 466 526 0.00880368 
r310 466 467 0.44 
r311 464 525 0.00880368 
r312 464 465 0.44 
r313 462 524 0.00880368 
r314 462 463 0.44 
r315 460 523 0.00880368 
r316 460 461 0.44 
r317 458 522 0.00880368 
r318 458 459 0.44 
r319 456 457 0.342439 
r320 454 455 0.319415 
r321 453 467 0.0519604 
r322 453 455 0.0318049 
r323 451 452 0.319415 
r324 450 463 0.0519604 
r325 450 452 0.0318049 
r326 448 449 0.319415 
r327 447 459 0.0519604 
r328 447 449 0.0318049 
r329 419 423 394.95 
r330 418 419 1.5 
r331 415 457 0.0215446 
r332 415 473 0.0304158 
r333 415 418 1.82353 
r334 412 456 0.0205784 
r335 412 471 0.031382 
r336 410 421 394.95 
r337 409 412 1.82353 
r338 409 410 1.5 
r339 407 423 394.95 
r340 518 406 1.82353 
r341 406 407 1.5 
r342 398 421 394.95 
r343 397 514 1.82353 
r344 397 398 1.5 
r345 350 454 0.0206833 
r346 350 469 0.0312771 
r347 332 350 2.54706 
r348 331 365 394.95 
r349 331 332 4.2601 
r350 330 455 2.41176 
r351 329 363 394.95 
r352 329 330 4.2601 
r353 328 510 2.54706 
r354 327 365 394.95 
r355 327 328 4.2601 
r356 326 507 2.41176 
r357 325 363 394.95 
r358 325 326 4.2601 
r359 308 451 0.0206833 
r360 308 465 0.0312771 
r361 290 308 2.54706 
r362 289 323 394.95 
r363 289 290 4.2601 
r364 288 452 2.41176 
r365 287 321 394.95 
r366 287 288 4.2601 
r367 286 503 2.54706 
r368 285 323 394.95 
r369 285 286 4.2601 
r370 284 499 2.41176 
r371 283 321 394.95 
r372 283 284 4.2601 
r373 266 448 0.0206833 
r374 266 461 0.0312771 
r375 248 266 2.54706 
r376 247 281 394.95 
r377 247 248 4.2601 
r378 246 449 2.41176 
r379 245 279 394.95 
r380 245 246 4.2601 
r381 244 495 2.54706 
r382 243 281 394.95 
r383 243 244 4.2601 
r384 242 491 2.41176 
r385 241 279 394.95 
r386 241 242 4.2601 
r387 238 121 0.0517073 
r388 121 116 6 
r389 587 116 6 
r390 107 238 1.72353 
r391 106 197 183.96 
r392 106 107 3.88985 
r393 100 231 0.0517073 
r394 100 95 6 
r395 580 95 6 
r396 86 231 1.72353 
r397 85 193 183.96 
r398 85 86 3.88985 
r399 226 79 0.0517073 
r400 79 74 6 
r401 575 74 6 
r402 65 226 1.72353 
r403 64 189 183.96 
r404 64 65 3.88985 
r405 58 219 0.0517073 
r406 58 53 6 
r407 570 53 6 
r408 44 219 1.72353 
r409 43 185 183.96 
r410 43 44 3.88985 
r411 214 37 0.0517073 
r412 37 32 6 
r413 565 32 6 
r414 23 214 1.72353 
r415 22 181 183.96 
r416 22 23 3.88985 
r417 16 207 0.0517073 
r418 16 11 6 
r419 550 11 6 
r420 2 207 1.72353 
r421 1 177 183.96 
r422 1 2 3.88985 
.ends

.subckt PM_PC3X13%U22_U82_gate 10 38 57
c0 90 0 11.5459f
c1 84 0 3.00771f
c2 79 0 1.61999f
c3 73 0 21.289f
c4 71 0 2.18204f
c5 67 0 0.958852f
c6 57 0 1.99825f
c7 53 0 0.327417f
c8 43 0 0.102596f
c9 38 0 1.97596f
c10 25 0 0.106627f
c11 16 0 1.6873f
c12 14 0 0.895326f
c13 13 0 0.193344f
c14 9 0 0.172249f
r15 76 84 3 
r16 90 73 11.9 
r17 71 73 3 
r18 71 76 0.71028 
r19 84 69 0.980935 
r20 67 69 1.5 
r21 64 67 0.267523 
r22 64 82 3 
r23 53 82 0.0863415 
r24 79 53 0.437073 
r25 44 53 2.05882 
r26 43 57 154.95 
r27 43 44 4.2601 
r28 26 79 2.05882 
r29 25 38 154.95 
r30 25 26 4.2601 
r31 19 90 6 
r32 14 16 6 
r33 14 19 1.13474 
r34 12 16 2.44 
r35 12 13 0.0243776 
r36 9 13 0.0193578 
r37 9 10 0.0127778 
.ends

.subckt PM_PC3X13%U12_U27$1_gate 34 39 70
c0 91 0 4.00581f
c1 87 0 1.70911f
c2 84 0 27.296f
c3 79 0 1.07073f
c4 73 0 0.0736527f
c5 70 0 0.293862f
c6 57 0 1.31134f
c7 56 0 0.705697f
c8 55 0 0.265998f
c9 45 0 0.404942f
c10 44 0 1.90497f
c11 43 0 0.44885f
c12 39 0 1.61409f
c13 34 0 1.61409f
r14 91 84 17.36 
r15 82 84 6 
r16 79 82 1.29171 
r17 79 87 6 
r18 77 87 2.18439 
r19 73 77 0.0492189 
r20 73 70 0.101111 
r21 62 91 6 
r22 57 59 6 
r23 57 62 0.92 
r24 55 59 0.0974912 
r25 55 56 0.0344187 
r26 44 56 19.7647 
r27 44 45 1.10351 
r28 42 56 19.7647 
r29 42 43 1.10351 
r30 35 45 2.38595 
r31 35 39 117.45 
r32 31 43 2.38595 
r33 31 34 117.465 
.ends

.subckt PM_PC3X13%VSS 463 537 548 556 564 572 580 587 843 863 1513 1518 1523
+ 1530 1534 1539 1544 1549 1560 1740 1749 1879 1904 1909 1915 1919 1930
c0 1930 0 1.46654f
c1 1919 0 1.87468f
c2 1915 0 75.4096f
c3 1914 0 0.557257f
c4 1913 0 88.0949f
c5 1912 0 1.32054f
c6 1907 0 0.663338f
c7 1904 0 2.66699f
c8 1903 0 2.82448f
c9 1902 0 0.133582f
c10 1901 0 18.0932f
c11 1900 0 0.949778f
c12 1899 0 7.91621f
c13 1898 0 0.797315f
c14 1897 0 6.81027f
c15 1895 0 0.489089f
c16 1893 0 4.14564f
c17 1892 0 3.99045f
c18 1891 0 9.20129f
c19 1890 0 1.67506f
c20 1889 0 3.18976f
c21 1888 0 8.40006f
c22 1887 0 2.92886f
c23 1886 0 0.177503f
c24 1885 0 2.89091f
c25 1884 0 4.23244f
c26 1882 0 0.170158f
c27 1849 0 0.00301957f
c28 1847 0 0.982289f
c29 1846 0 6.59332f
c30 1845 0 0.00303892f
c31 1843 0 5.27388f
c32 1749 0 0.2532f
c33 1740 0 4.1724f
c34 1712 0 71.5836f
c35 1701 0 2.84564f
c36 1682 0 3.08262f
c37 1681 0 0.0549953f
c38 1674 0 14.973f
c39 1667 0 14.2038f
c40 1664 0 1.06039f
c41 1659 0 17.5236f
c42 1657 0 8.32213f
c43 1655 0 2.3427f
c44 1647 0 0.270234f
c45 1603 0 13.0197f
c46 1602 0 0.074111f
c47 1601 0 7.57938f
c48 1600 0 0.0664241f
c49 1599 0 8.42181f
c50 1598 0 0.31966f
c51 1597 0 2.33999f
c52 1586 0 1.8243f
c53 1585 0 4.7176f
c54 1560 0 10.886f
c55 1556 0 0.204101f
c56 1555 0 3.30248f
c57 1554 0 2.00464f
c58 1549 0 1.82333f
c59 1548 0 5.32742f
c60 1544 0 1.80352f
c61 1539 0 1.80339f
c62 1534 0 1.80303f
c63 1530 0 2.43778f
c64 1528 0 11.7681f
c65 1523 0 1.80009f
c66 1518 0 1.79964f
c67 1513 0 1.83319f
c68 1511 0 3.54949f
c69 1506 0 9.25941f
c70 1504 0 0.198142f
c71 1333 0 0.184918f
c72 1329 0 0.222173f
c73 1323 0 0.356038f
c74 1321 0 0.0913822f
c75 1289 0 4.08122f
c76 1287 0 0.0438425f
c77 1284 0 0.161087f
c78 1269 0 3.75323f
c79 1266 0 2.96287f
c80 866 0 0.298129f
c81 863 0 0.0083603f
c82 860 0 1.64908f
c83 858 0 0.115791f
c84 846 0 0.33444f
c85 843 0 1.84565e-19
c86 840 0 1.81689f
c87 838 0 0.0867484f
c88 587 0 0.255058f
c89 580 0 0.256689f
c90 572 0 0.025555f
c91 569 0 1.39208f
c92 564 0 0.00191678f
c93 561 0 1.39876f
c94 553 0 0.374963f
c95 545 0 6.67543f
c96 534 0 6.72279f
c97 531 0 2.21747f
c98 519 0 1.59573f
c99 512 0 12.0763f
c100 505 0 10.1184f
c101 501 0 0.0127626f
c102 486 0 0.197831f
c103 485 0 0.0312406f
c104 484 0 0.20268f
c105 482 0 0.0388736f
c106 481 0 12.0424f
c107 474 0 9.01314f
c108 471 0 1.28456f
c109 463 0 2.34902f
c110 459 0 5.29738f
c111 457 0 1.2594f
c112 455 0 1.43238f
c113 453 0 4.29064f
c114 445 0 2.85303f
c115 444 0 3.87503f
c116 443 0 0.198156f
c117 242 0 0.238636f
c118 233 0 0.162941f
c119 231 0 3.10378f
c120 230 0 0.035934f
c121 229 0 0.980541f
c122 227 0 1.88877f
c123 225 0 2.95613f
c124 224 0 0.027237f
c125 223 0 0.499789f
c126 169 0 0.348731f
c127 166 0 16.7645f
c128 162 0 0.247539f
c129 160 0 0.323934f
c130 153 0 0.0944796f
c131 150 0 0.0516124f
c132 149 0 0.0843883f
c133 147 0 1.81994f
r134 1932 1933 0.202 
r135 1930 1932 0.022 
r136 1914 1915 0.0767177 
r137 1913 1914 0.00140671 
r138 1912 1913 0.0832563 
r139 1909 1912 0.000703354 
r140 1903 1904 0.025005 
r141 1902 1903 0.0548355 
r142 1901 1902 0.0042672 
r143 1900 1901 0.191027 
r144 1899 1900 0.00921236 
r145 1898 1899 0.0906879 
r146 1897 1898 0.0237288 
r147 1892 1893 0.0716251 
r148 1891 1892 0.0486142 
r149 1890 1891 0.0944766 
r150 1889 1890 0.0159521 
r151 1888 1889 0.0277567 
r152 1887 1888 0.0839083 
r153 1886 1887 0.0344566 
r154 1885 1886 0.00151545 
r155 1884 1885 0.055673 
r156 1879 1882 0.0026321 
r157 1876 1877 0.000275862 
r158 1875 1876 0.710897 
r159 1860 1861 0.70869 
r160 1858 1860 0.00110345 
r161 1849 1877 0.02 
r162 1847 1856 0.02 
r163 1846 1853 0.02 
r164 1845 1876 0.02 
r165 1844 1858 0.02 
r166 1843 1856 0.02 
r167 1842 1853 0.02 
r168 1754 1899 0.0666667 
r169 1752 1901 0.0740741 
r170 1746 1749 0.04 
r171 1746 1897 2 
r172 1743 1900 0.0535714 
r173 1861 1740 0.0877241 
r174 1740 1875 0.0877241 
r175 1740 1743 0.6155 
r176 1711 1712 1.0345 
r177 1709 1710 1.12289 
r178 1740 1709 2.59036 
r179 1707 1740 0.967229 
r180 1701 1907 0.461538 
r181 1682 1913 0.131579 
r182 1682 1927 0.101 
r183 1682 1914 0.131579 
r184 1681 1897 0.0865404 
r185 1895 1681 0.00757727 
r186 1927 1681 0.428571 
r187 1677 1678 1.69381 
r188 1674 1677 0.628223 
r189 1674 1898 0.3 
r190 1670 1671 1.65638 
r191 1667 1670 0.62928 
r192 1667 1902 0.3 
r193 1704 1664 0.25 
r194 1662 1664 0.25 
r195 1659 1662 0.646725 
r196 1659 1903 0.166667 
r197 1915 1657 0.00653859 
r198 1932 1657 0.131579 
r199 1655 1907 0.00119641 
r200 1904 1655 0.0243669 
r201 1933 1655 0.428571 
r202 1678 1647 3 
r203 1647 1709 3 
r204 1603 1860 0.02 
r205 1603 1710 0.111325 
r206 1601 1712 2.6035 
r207 1601 1602 0.0338756 
r208 1599 1743 1.2555 
r209 1599 1600 0.0338756 
r210 1597 1704 0.0727479 
r211 1597 1598 0.00434156 
r212 1849 1596 0.109524 
r213 1594 1602 0.0338756 
r214 1847 1594 1.2745 
r215 1592 1600 0.0338756 
r216 1846 1592 1.2745 
r217 1588 1602 0.00880368 
r218 1588 1740 0.9495 
r219 1587 1600 0.00880368 
r220 1587 1740 0.9945 
r221 1585 1754 0.072412 
r222 1585 1586 0.5605 
r223 1585 1560 0.0582667 
r224 1556 1560 0.4585 
r225 1555 1586 0.0446983 
r226 1555 1560 0.4715 
r227 1554 1556 0.0446983 
r228 1585 1554 0.5605 
r229 1548 1752 0.0572326 
r230 1548 1549 0.3592 
r231 1548 1544 0.3592 
r232 1548 1539 0.3592 
r233 1548 1534 0.3592 
r234 1532 1598 0.0535409 
r235 1528 1530 0.243878 
r236 1527 1598 0.0535409 
r237 1527 1530 0.0653061 
r238 1548 1523 0.3592 
r239 1548 1518 0.3592 
r240 1548 1513 0.3592 
r241 1511 1596 0.0380952 
r242 1509 1710 0.02 
r243 1508 1530 0.8165 
r244 1507 1530 0.8165 
r245 1506 1532 0.0510716 
r246 1505 1528 0.02 
r247 1504 1707 1.17157 
r248 1502 1701 1.518 
r249 1711 1333 3 
r250 1602 1331 3 
r251 1331 1329 0.000888889 
r252 1677 1329 3 
r253 1325 1333 0.0005 
r254 1670 1325 3 
r255 1323 1707 3 
r256 1671 1323 3 
r257 1321 1711 1.3475 
r258 1502 1321 0.0446983 
r259 1509 1310 0.938734 
r260 1307 1309 0.143333 
r261 1504 1306 0.0385542 
r262 1304 1306 0.14506 
r263 1740 1300 0.192 
r264 1298 1740 0.192 
r265 1297 1298 0.342 
r266 1740 1297 0.192 
r267 1295 1740 0.192 
r268 1294 1295 0.342 
r269 1740 1294 0.192 
r270 1292 1740 0.192 
r271 1291 1292 0.342 
r272 1740 1291 0.192 
r273 1289 1740 0.192 
r274 1288 1596 0.02 
r275 1288 1300 1.214 
r276 1287 1310 0.04 
r277 1287 1289 0.243 
r278 1284 1309 0.0380952 
r279 1511 1284 5.74476 
r280 1740 1280 0.159 
r281 1278 1740 0.159 
r282 1277 1278 0.408 
r283 1740 1277 0.159 
r284 1275 1740 0.159 
r285 1274 1275 0.408 
r286 1740 1274 0.159 
r287 1272 1740 0.159 
r288 1271 1272 0.408 
r289 1740 1271 0.159 
r290 1269 1740 0.159 
r291 1268 1309 0.02 
r292 1268 1280 1.247 
r293 1267 1306 0.02 
r294 1267 1269 1.243 
r295 1266 1307 0.02 
r296 1265 1304 0.02 
r297 1265 1266 4.69271 
r298 1506 863 0.131104 
r299 1530 863 0.0051505 
r300 860 866 0.123079 
r301 860 1530 0.0948495 
r302 1508 858 0.0446983 
r303 866 858 0.2285 
r304 1505 843 0.131104 
r305 1530 843 0.0051505 
r306 840 846 0.123079 
r307 840 1530 0.0948495 
r308 1507 838 0.0446983 
r309 846 838 0.2285 
r310 590 1856 0.81 
r311 1853 590 0.202 
r312 590 1895 0.375 
r313 584 587 0.0378378 
r314 584 1893 2 
r315 577 580 0.0351351 
r316 577 1891 2 
r317 569 572 1.315 
r318 569 1890 1.2 
r319 561 564 1.65 
r320 561 1889 2 
r321 553 556 0.01 
r322 553 1888 1.2 
r323 545 548 0.0806648 
r324 545 1887 0.272727 
r325 542 1885 3 
r326 534 537 0.0806648 
r327 534 1884 0.272727 
r328 531 1882 0.428571 
r329 519 1895 0.00119641 
r330 1893 519 0.0294317 
r331 1927 519 0.428571 
r332 515 516 1.10275 
r333 512 515 0.631373 
r334 512 1892 0.272727 
r335 508 509 1.07751 
r336 505 508 0.629665 
r337 505 1886 0.272727 
r338 502 1923 0.202 
r339 1919 502 0.022 
r340 502 1912 0.131579 
r341 501 1884 0.0462612 
r342 1882 501 0.00175474 
r343 1923 501 0.428571 
r344 483 531 0.426 
r345 482 542 1.253 
r346 482 483 0.0446983 
r347 1845 480 0.113882 
r348 480 481 0.0432941 
r349 1844 477 0.122532 
r350 473 486 0.0667074 
r351 473 474 1.04 
r352 470 486 0.0106594 
r353 470 471 0.140784 
r354 467 485 0.0149881 
r355 467 1740 1.3345 
r356 462 485 0.0313149 
r357 462 463 2.3875 
r358 460 484 0.0677496 
r359 460 1740 1.93366 
r360 459 486 0.0667074 
r361 459 1740 1.59122 
r362 456 484 0.0110999 
r363 456 457 0.137033 
r364 455 484 0.0677496 
r365 453 485 0.0149881 
r366 453 454 1.1345 
r367 450 480 0.02 
r368 447 474 0.02 
r369 446 1842 2.276 
r370 445 1740 0.2455 
r371 444 542 2.7265 
r372 443 455 0.965854 
r373 441 531 1.518 
r374 245 247 0.138165 
r375 240 242 0.155789 
r376 238 477 0.02 
r377 238 450 4.33826 
r378 237 477 0.02 
r379 447 237 0.763478 
r380 247 233 0.0404706 
r381 481 233 5.75048 
r382 231 247 0.02 
r383 230 231 3.47535 
r384 229 230 0.04 
r385 228 242 0.02 
r386 228 229 1.10182 
r387 227 242 0.02 
r388 226 443 0.0447708 
r389 226 227 0.798182 
r390 225 245 0.02 
r391 224 225 4.25222 
r392 224 223 0.0399503 
r393 222 240 0.02 
r394 222 223 0.673 
r395 1843 170 1.281 
r396 509 169 2 
r397 457 169 2 
r398 508 166 3 
r399 454 166 3 
r400 170 162 3 
r401 515 162 3 
r402 471 160 2 
r403 516 160 2 
r404 445 153 0.0354455 
r405 151 170 0.995 
r406 151 153 0.0354455 
r407 444 150 0.0354455 
r408 446 150 0.0354455 
r409 149 454 1.233 
r410 441 149 0.0446983 
r411 147 153 0.00751643 
r412 146 150 0.00751643 
r413 146 147 1.84047 
.ends

.subckt PM_PC3X13%VDD 201 208 215 222 229 236 243 355 360 365 370 379 529 536
+ 539 547 557 740 746 754 790 876 894 900 906 912 923
c0 920 0 1.90204f
c1 906 0 90.3081f
c2 905 0 0.368411f
c3 904 0 89.0959f
c4 903 0 1.13465f
c5 893 0 66.4697f
c6 872 0 0.0176789f
c7 871 0 0.0693137f
c8 870 0 1.21542f
c9 869 0 0.146176f
c10 866 0 1.50177f
c11 860 0 15.5829f
c12 856 0 7.13768f
c13 855 0 1.32164f
c14 794 0 1.60315f
c15 790 0 0.0670622f
c16 786 0 2.96386f
c17 784 0 3.09646f
c18 775 0 4.68887f
c19 772 0 4.83065f
c20 770 0 22.4185f
c21 768 0 7.58469f
c22 754 0 1.44517f
c23 752 0 0.0693347f
c24 750 0 0.057515f
c25 746 0 4.70885f
c26 741 0 4.1215f
c27 740 0 0.0385485f
c28 739 0 5.75971f
c29 738 0 5.46592f
c30 737 0 1.2041f
c31 736 0 0.71832f
c32 734 0 0.747053f
c33 689 0 0.0996392f
c34 688 0 0.102823f
c35 679 0 7.8842f
c36 640 0 14.3666f
c37 612 0 0.851696f
c38 606 0 0.52127f
c39 557 0 9.11054f
c40 555 0 3.75944f
c41 539 0 1.96766f
c42 529 0 0.0234394f
c43 520 0 14.7573f
c44 512 0 4.81166f
c45 460 0 3.56844f
c46 458 0 0.0540046f
c47 441 0 11.912f
c48 436 0 3.37909f
c49 433 0 0.163996f
c50 431 0 0.406547f
c51 424 0 2.81823f
c52 422 0 0.0464843f
c53 415 0 2.84187f
c54 412 0 11.8928f
c55 407 0 3.73672f
c56 404 0 2.15656f
c57 396 0 2.08345f
c58 394 0 1.44856f
c59 391 0 1.95308f
c60 390 0 1.77468f
c61 389 0 0.320188f
c62 387 0 0.00844315f
c63 386 0 0.00844315f
c64 384 0 0.00844315f
c65 382 0 0.0629565f
c66 381 0 0.128952f
c67 378 0 0.0731658f
c68 377 0 0.194647f
c69 376 0 0.133737f
c70 374 0 0.0733026f
c71 369 0 0.288387f
c72 365 0 0.782499f
c73 360 0 1.27853f
c74 355 0 0.789282f
c75 352 0 0.053964f
c76 350 0 0.211764f
c77 343 0 0.116165f
c78 208 0 0.00556728f
c79 190 0 16.6568f
c80 188 0 29.7432f
c81 186 0 29.3314f
c82 184 0 29.4438f
c83 182 0 29.3919f
c84 180 0 29.3334f
c85 178 0 16.8875f
c86 154 0 2.46161f
c87 151 0 5.53319f
c88 10 0 0.0781596f
c89 9 0 4.80025f
c90 8 0 0.0964576f
c91 6 0 0.571232f
r92 923 924 0.1255 
r93 920 923 0.0155 
r94 912 914 0.1255 
r95 905 906 0.0758532 
r96 904 905 0.00139086 
r97 903 904 0.0823181 
r98 900 903 0.000695428 
r99 894 897 0.000400729 
r100 894 896 0.0244983 
r101 892 893 0.00685084 
r102 891 892 0.0425501 
r103 886 887 0.0257923 
r104 885 886 0.12623 
r105 884 885 0.000218579 
r106 883 884 7.28597e-05 
r107 882 883 0.232168 
r108 881 882 0.0248087 
r109 880 881 0.00641166 
r110 872 873 0.0334303 
r111 869 870 0.0335268 
r112 867 871 0.0576508 
r113 867 868 0.0338756 
r114 866 869 0.0477027 
r115 873 866 0.799375 
r116 863 872 0.01 
r117 862 871 0.00647627 
r118 856 871 0.0576508 
r119 855 870 0.0335268 
r120 797 891 0.5 
r121 794 892 0.125 
r122 784 897 0.4 
r123 775 904 0.0925926 
r124 775 918 0.0705 
r125 775 905 0.0925926 
r126 774 891 0.00845173 
r127 889 774 0.0070674 
r128 918 774 0.6 
r129 906 772 0.00646491 
r130 920 772 0.0925926 
r131 897 770 0.0217122 
r132 924 770 0.6 
r133 768 790 0.0752896 
r134 766 768 0.125 
r135 893 766 0.104382 
r136 763 786 0.5 
r137 763 766 0.0401241 
r138 759 870 0.00909727 
r139 758 868 0.00880368 
r140 758 797 0.936 
r141 754 757 0.0107143 
r142 754 753 0.0150161 
r143 753 794 0.0257143 
r144 751 752 0.00909727 
r145 749 786 0.936 
r146 749 750 0.00880368 
r147 757 746 0.023166 
r148 744 752 0.0335268 
r149 855 744 1.94963 
r150 742 750 0.0338756 
r151 741 868 0.0338756 
r152 741 742 1.974 
r153 751 740 1.263 
r154 786 740 0.449 
r155 759 740 1.263 
r156 797 740 0.449 
r157 739 752 0.0335268 
r158 739 740 0.818765 
r159 738 750 0.0338756 
r160 736 737 0.0739054 
r161 736 746 0.151351 
r162 734 790 0.151351 
r163 731 784 1.84 
r164 730 784 0.808 
r165 689 740 2.97136 
r166 731 689 0.0447005 
r167 688 738 3.8375 
r168 730 688 0.0446983 
r169 681 763 0.0323079 
r170 679 681 0.102485 
r171 679 896 0.266413 
r172 670 737 0.429217 
r173 734 670 0.0739054 
r174 656 657 0.324486 
r175 655 656 0.324486 
r176 654 655 0.370841 
r177 653 654 0.916636 
r178 648 649 0.324231 
r179 647 648 0.340769 
r180 646 647 0.340769 
r181 645 646 0.340769 
r182 644 645 0.340731 
r183 640 642 0.0746538 
r184 634 635 0.304151 
r185 633 634 0.33434 
r186 632 633 0.33434 
r187 631 632 0.33434 
r188 630 631 0.334302 
r189 863 612 0.3225 
r190 862 612 0.322 
r191 612 889 0.461538 
r192 606 661 1.5 
r193 606 610 0.0897196 
r194 604 661 0.357383 
r195 602 604 2 
r196 598 604 0.324486 
r197 596 598 1.2 
r198 591 598 0.324486 
r199 657 591 0.324486 
r200 589 591 2 
r201 582 657 1.5 
r202 575 656 3 
r203 569 655 1.5 
r204 567 569 0.0291589 
r205 562 654 2 
r206 569 557 0.0112897 
r207 557 575 0.0628037 
r208 557 589 0.0493458 
r209 557 582 0.0096063 
r210 557 596 0.00224299 
r211 557 602 0.0358879 
r212 557 562 0.0299065 
r213 557 567 0.0807477 
r214 555 557 0.636336 
r215 555 653 0.333333 
r216 550 860 0.330667 
r217 544 547 1.525 
r218 544 885 0.666667 
r219 536 539 1.9475 
r220 533 536 0.0025 
r221 533 884 0.75 
r222 526 529 1.535 
r223 526 883 0.666667 
r224 557 523 2.47 
r225 523 640 2 
r226 520 628 0.0758868 
r227 518 520 2 
r228 518 557 2.457 
r229 512 624 1.5 
r230 512 516 0.0897196 
r231 510 624 0.360755 
r232 508 510 2 
r233 557 508 0.0358879 
r234 504 510 0.327547 
r235 502 504 1.2 
r236 557 502 0.00224299 
r237 497 504 0.327547 
r238 495 497 2 
r239 557 495 0.0493458 
r240 490 497 0.327547 
r241 488 490 1.5 
r242 557 488 0.0096063 
r243 483 490 0.327547 
r244 481 483 3 
r245 557 481 0.0628037 
r246 476 483 0.327547 
r247 474 476 1.5 
r248 557 474 0.00813861 
r249 469 476 0.37434 
r250 616 469 0.701887 
r251 467 469 2 
r252 557 467 0.0299065 
r253 460 616 0.375 
r254 460 557 0.415028 
r255 458 880 0.461538 
r256 444 889 0.00123862 
r257 887 444 0.0282332 
r258 918 444 0.6 
r259 441 653 0.605981 
r260 439 441 0.272727 
r261 436 439 1.22579 
r262 436 887 0.1875 
r263 550 433 6 
r264 431 433 6 
r265 447 431 1.85189 
r266 428 644 0.235231 
r267 642 428 0.0651538 
r268 426 428 0.153846 
r269 424 426 0.642885 
r270 424 886 0.133333 
r271 422 447 0.0783225 
r272 422 424 0.139808 
r273 420 630 0.242491 
r274 628 420 0.0616604 
r275 418 420 0.153846 
r276 415 418 0.630755 
r277 415 882 0.133333 
r278 412 616 0.705283 
r279 410 412 0.333333 
r280 407 410 1.35509 
r281 407 881 0.2 
r282 404 912 0.0155 
r283 404 903 0.0925926 
r284 403 880 0.0213479 
r285 876 403 0.00415301 
r286 914 403 0.6 
r287 399 860 6 
r288 394 396 6 
r289 394 399 2.19718 
r290 393 396 3.15042 
r291 391 547 2.375 
r292 390 529 2.375 
r293 385 458 0.0475949 
r294 385 386 0.015165 
r295 383 458 0.158987 
r296 383 384 0.015165 
r297 381 393 0.0449058 
r298 381 382 0.153651 
r299 378 389 0.0664609 
r300 378 379 0.102703 
r301 377 382 0.0664609 
r302 377 379 0.0443243 
r303 376 391 0.0446983 
r304 375 390 0.0446983 
r305 375 376 0.51 
r306 389 374 0.598095 
r307 369 374 0.066959 
r308 369 370 0.0443243 
r309 364 387 0.0309988 
r310 364 365 2.7475 
r311 359 386 0.0309988 
r312 359 360 2.7475 
r313 354 384 0.0309988 
r314 354 355 2.7475 
r315 353 387 0.015165 
r316 352 387 0.015165 
r317 351 386 0.015165 
r318 351 352 0.206582 
r319 350 384 0.015165 
r320 346 555 0.811963 
r321 343 518 0.324 
r322 342 343 0.045921 
r323 342 460 1.03327 
r324 635 241 1.5 
r325 241 243 0.765343 
r326 634 234 1.5 
r327 234 236 0.46673 
r328 633 227 1.5 
r329 227 229 0.479431 
r330 632 220 1.5 
r331 220 222 0.479431 
r332 631 213 1.5 
r333 213 215 0.479431 
r334 630 206 1.5 
r335 206 208 0.479431 
r336 628 199 1.5 
r337 199 201 0.765343 
r338 201 190 0.737863 
r339 642 190 1.5 
r340 208 188 0.453839 
r341 644 188 1 
r342 215 186 0.453839 
r343 645 186 1.5 
r344 222 184 0.453839 