* File: pc3c04.dist.sp.pex
* Created: Sun Jul  4 12:24:16 2010
* Program "Calibre xRC"
* Version "v2008.4_19.14"
* Nominal Temperature: 27C
* Circuit Temperature: 27C
* 
.subckt PM_PC3C04%CCLK 63 65 138 140 213 215 288 290 363 365 438 440 513 515
+ 588 590 729 731 733 735 737 739 741 743 745 747 749 751 753 755 757 759 775 845
+ 866
c0 863 0 10.8535f
c1 861 0 5.85824f
c2 840 0 0.110005f
c3 834 0 0.14172f
c4 832 0 6.2817f
c5 826 0 2.64525f
c6 820 0 2.59645f
c7 814 0 2.59645f
c8 808 0 2.59645f
c9 802 0 2.59645f
c10 796 0 2.59645f
c11 790 0 2.59645f
c12 784 0 2.50585f
c13 782 0 2.14917f
c14 780 0 1.00342f
c15 775 0 0.148263f
c16 759 0 1.68542f
c17 757 0 1.61545f
c18 755 0 1.61544f
c19 753 0 1.61544f
c20 751 0 1.61544f
c21 749 0 1.61544f
c22 747 0 1.61544f
c23 745 0 1.61544f
c24 743 0 1.61544f
c25 741 0 1.61544f
c26 739 0 1.61544f
c27 737 0 1.61544f
c28 735 0 1.61544f
c29 733 0 1.61544f
c30 731 0 1.61545f
c31 729 0 1.68542f
c32 598 0 0.256662f
c33 590 0 0.763201f
c34 588 0 0.733706f
c35 557 0 0.523543f
c36 555 0 6.20642f
c37 553 0 0.137107f
c38 523 0 0.255489f
c39 515 0 0.744613f
c40 513 0 0.733706f
c41 482 0 0.523037f
c42 478 0 0.138842f
c43 448 0 0.255489f
c44 440 0 0.744613f
c45 438 0 0.733706f
c46 407 0 0.523037f
c47 403 0 0.138842f
c48 373 0 0.255489f
c49 365 0 0.744613f
c50 363 0 0.733706f
c51 332 0 0.523037f
c52 328 0 0.138842f
c53 298 0 0.255489f
c54 290 0 0.744613f
c55 288 0 0.733706f
c56 257 0 0.523037f
c57 253 0 0.138842f
c58 223 0 0.255489f
c59 215 0 0.744613f
c60 213 0 0.733706f
c61 182 0 0.523037f
c62 178 0 0.138842f
c63 148 0 0.255489f
c64 140 0 0.744613f
c65 138 0 0.733706f
c66 107 0 0.523037f
c67 103 0 0.138842f
c68 73 0 0.256661f
c69 65 0 0.74461f
c70 63 0 0.752052f
c71 32 0 0.524521f
c72 28 0 0.137097f
r73 860 861 0.944 
r74 859 860 0.944 
r75 858 859 0.944 
r76 857 858 0.944 
r77 856 857 0.944 
r78 855 856 0.944 
r79 854 855 0.944 
r80 851 854 0.466 
r81 842 866 0.0556364 
r82 863 842 6.25697 
r83 840 842 6 
r84 840 845 0.0556364 
r85 837 863 6 
r86 851 834 6 
r87 834 870 0.0534859 
r88 832 834 6 
r89 832 837 4.20242 
r90 829 830 1.058 
r91 823 824 1.058 
r92 817 818 1.058 
r93 811 812 1.058 
r94 805 806 1.058 
r95 799 800 1.058 
r96 793 794 1.058 
r97 787 788 1.058 
r98 780 782 6 
r99 870 780 1.402 
r100 774 782 2.73 
r101 774 775 0.053452 
r102 578 590 85 
r103 574 588 85 
r104 573 759 197.5 
r105 598 572 9.36508 
r106 572 573 1.70635 
r107 569 757 197.5 
r108 568 598 9.36508 
r109 568 569 1.70635 
r110 558 829 0.466 
r111 826 558 1.448 
r112 558 861 6 
r113 557 578 7.56466 
r114 574 557 7.69397 
r115 826 557 6 
r116 829 555 6 
r117 553 598 0.034 
r118 830 553 6 
r119 503 515 85 
r120 499 513 85 
r121 498 755 197.5 
r122 523 497 9.36508 
r123 497 498 1.70635 
r124 494 753 197.5 
r125 493 523 9.36508 
r126 493 494 1.70635 
r127 483 823 0.466 
r128 820 483 1.448 
r129 483 860 6 
r130 482 503 7.56466 
r131 499 482 7.69397 
r132 820 482 6 
r133 480 555 1.18 
r134 823 480 6 
r135 478 523 0.034 
r136 824 478 6 
r137 428 440 85 
r138 424 438 85 
r139 423 751 197.5 
r140 448 422 9.36508 
r141 422 423 1.70635 
r142 419 749 197.5 
r143 418 448 9.36508 
r144 418 419 1.70635 
r145 408 817 0.466 
r146 814 408 1.448 
r147 408 859 6 
r148 407 428 7.56466 
r149 424 407 7.69397 
r150 814 407 6 
r151 405 480 1.18 
r152 817 405 6 
r153 403 448 0.034 
r154 818 403 6 
r155 353 365 85 
r156 349 363 85 
r157 348 747 197.5 
r158 373 347 9.36508 
r159 347 348 1.70635 
r160 344 745 197.5 
r161 343 373 9.36508 
r162 343 344 1.70635 
r163 333 811 0.466 
r164 808 333 1.448 
r165 333 858 6 
r166 332 353 7.56466 
r167 349 332 7.69397 
r168 808 332 6 
r169 330 405 1.18 
r170 811 330 6 
r171 328 373 0.034 
r172 812 328 6 
r173 278 290 85 
r174 274 288 85 
r175 273 743 197.5 
r176 298 272 9.36508 
r177 272 273 1.70635 
r178 269 741 197.5 
r179 268 298 9.36508 
r180 268 269 1.70635 
r181 258 805 0.466 
r182 802 258 1.448 
r183 258 857 6 
r184 257 278 7.56466 
r185 274 257 7.69397 
r186 802 257 6 
r187 255 330 1.18 
r188 805 255 6 
r189 253 298 0.034 
r190 806 253 6 
r191 203 215 85 
r192 199 213 85 
r193 198 739 197.5 
r194 223 197 9.36508 
r195 197 198 1.70635 
r196 194 737 197.5 
r197 193 223 9.36508 
r198 193 194 1.70635 
r199 183 799 0.466 
r200 796 183 1.448 
r201 183 856 6 
r202 182 203 7.56466 
r203 199 182 7.69397 
r204 796 182 6 
r205 180 255 1.18 
r206 799 180 6 
r207 178 223 0.034 
r208 800 178 6 
r209 128 140 85 
r210 124 138 85 
r211 123 735 197.5 
r212 148 122 9.36508 
r213 122 123 1.70635 
r214 119 733 197.5 
r215 118 148 9.36508 
r216 118 119 1.70635 
r217 108 793 0.466 
r218 790 108 1.448 
r219 108 855 6 
r220 107 128 7.56466 
r221 124 107 7.69397 
r222 790 107 6 
r223 105 180 1.18 
r224 793 105 6 
r225 103 148 0.034 
r226 794 103 6 
r227 53 65 85 
r228 49 63 85 
r229 48 731 197.5 
r230 73 47 9.36508 
r231 47 48 1.70635 
r232 44 729 197.5 
r233 43 73 9.36508 
r234 43 44 1.70635 
r235 33 787 0.466 
r236 784 33 1.448 
r237 33 854 6 
r238 32 53 7.56466 
r239 49 32 7.69397 
r240 784 32 6 
r241 30 105 1.18 
r242 787 30 6 
r243 28 73 0.034 
r244 788 28 6 
.ends

.subckt PM_PC3C04%VDD 380 391 396 403 408 415 420 427 432 439 444 451 456 463
+ 468 475 480 487 492 501 506 513 518 525 530 537 542 549 554 561 566 573 578 584
+ 628 638 697 705 713 716 722
c0 722 0 82.4038f
c1 713 0 36.8446f
c2 699 0 28.9702f
c3 693 0 8.69415f
c4 691 0 6.11126f
c5 688 0 6.24648f
c6 638 0 1.43041f
c7 628 0 1.53395f
c8 621 0 0.0744636f
c9 620 0 0.0775907f
c10 619 0 0.0745806f
c11 618 0 0.0775907f
c12 617 0 0.0745806f
c13 616 0 0.0775907f
c14 615 0 0.0745806f
c15 614 0 0.0775907f
c16 613 0 0.0745806f
c17 612 0 0.0775907f
c18 611 0 0.0745806f
c19 610 0 0.0775907f
c20 609 0 0.0745806f
c21 608 0 0.0775907f
c22 607 0 0.0745806f
c23 606 0 0.0695874f
c24 584 0 3.52238f
c25 578 0 1.79049f
c26 573 0 4.55197f
c27 570 0 0.347475f
c28 566 0 1.78647f
c29 561 0 4.53971f
c30 558 0 0.292635f
c31 554 0 1.78647f
c32 549 0 4.55186f
c33 546 0 0.347475f
c34 542 0 1.78647f
c35 537 0 4.53958f
c36 534 0 0.292635f
c37 530 0 1.78647f
c38 525 0 4.55186f
c39 522 0 0.347475f
c40 518 0 1.78647f
c41 513 0 4.53974f
c42 510 0 0.292635f
c43 506 0 1.78647f
c44 501 0 4.65618f
c45 496 0 0.347475f
c46 492 0 1.78647f
c47 487 0 5.2845f
c48 484 0 0.292635f
c49 480 0 1.78647f
c50 475 0 4.65633f
c51 472 0 0.347475f
c52 468 0 1.78647f
c53 463 0 4.53971f
c54 460 0 0.292635f
c55 456 0 1.78647f
c56 451 0 4.55186f
c57 448 0 0.347475f
c58 444 0 1.78647f
c59 439 0 4.53958f
c60 436 0 0.292635f
c61 432 0 1.78647f
c62 427 0 4.55186f
c63 424 0 0.347475f
c64 420 0 1.78647f
c65 415 0 4.57561f
c66 412 0 0.292635f
c67 408 0 1.78647f
c68 403 0 4.69629f
c69 400 0 0.347475f
c70 396 0 1.78333f
c71 391 0 3.90955f
c72 386 0 0.642132f
c73 380 0 0.661743f
c74 377 0 2.83776f
c75 376 0 0.250593f
c76 372 0 0.761027f
c77 370 0 9.69514f
c78 369 0 1.08486f
c79 365 0 0.821864f
c80 186 0 40.4067f
c81 183 0 0.848925f
c82 182 0 1.44603f
c83 161 0 8.5872f
c84 156 0 0.579695f
c85 154 0 0.655779f
c86 146 0 0.973281f
c87 145 0 0.815366f
c88 144 0 1.02198f
c89 143 0 1.2337f
c90 141 0 37.4567f
c91 47 0 12.6172f
c92 42 0 3.78036f
r93 720 722 0.000462331 
r94 719 720 0.0825499 
r95 716 719 0.000695428 
r96 710 711 0.0152277 
r97 709 710 0.382878 
r98 699 700 0.11055 
r99 702 697 0.00897078 
r100 697 700 0.186408 
r101 693 697 0.102913 
r102 691 710 0.0444444 
r103 688 709 0.0444444 
r104 646 713 0.00261566 
r105 711 646 0.0264481 
r106 644 646 0.6 
r107 642 644 0.179048 
r108 642 720 0.0925926 
r109 638 642 0.0787302 
r110 636 709 0.0422587 
r111 705 636 0.00415301 
r112 634 636 0.6 
r113 632 634 0.141 
r114 632 719 0.0925926 
r115 628 632 0.062 
r116 626 699 0.0675728 
r117 697 626 0.00828479 
r118 624 626 0.0307692 
r119 604 605 0.0528852 
r120 603 604 0.0528852 
r121 602 603 0.0528852 
r122 601 602 0.0528852 
r123 600 601 0.0528852 
r124 599 600 0.0528852 
r125 598 599 0.0528852 
r126 597 598 0.0528852 
r127 697 597 0.00537815 
r128 595 697 0.047507 
r129 594 595 0.0528852 
r130 593 594 0.0528852 
r131 592 593 0.0528852 
r132 591 592 0.0528852 
r133 590 591 0.0528852 
r134 589 590 0.0528852 
r135 588 589 0.0528852 
r136 583 605 0.02 
r137 583 584 4.6725 
r138 582 621 0.00756288 
r139 577 621 0.049467 
r140 577 578 3.2 
r141 572 604 0.02 
r142 572 573 4.6725 
r143 571 620 0.00756288 
r144 570 621 0.00756288 
r145 570 571 0.0977245 
r146 565 620 0.049467 
r147 565 566 3.2 
r148 560 603 0.02 
r149 560 561 4.6725 
r150 559 619 0.00756288 
r151 558 620 0.00756288 
r152 558 559 0.0983851 
r153 553 619 0.049467 
r154 553 554 3.2 
r155 548 602 0.02 
r156 548 549 4.6725 
r157 547 618 0.00756288 
r158 546 619 0.00756288 
r159 546 547 0.0977245 
r160 541 618 0.049467 
r161 541 542 3.2 
r162 536 601 0.02 
r163 536 537 4.6725 
r164 535 617 0.00756288 
r165 534 618 0.00756288 
r166 534 535 0.0983851 
r167 529 617 0.049467 
r168 529 530 3.2 
r169 524 600 0.02 
r170 524 525 4.6725 
r171 523 616 0.00756288 
r172 522 617 0.00756288 
r173 522 523 0.0977245 
r174 517 616 0.049467 
r175 517 518 3.2 
r176 512 599 0.02 
r177 512 513 4.6725 
r178 511 615 0.00756288 
r179 510 616 0.00756288 
r180 510 511 0.0983851 
r181 505 615 0.049467 
r182 505 506 3.2 
r183 500 598 0.02 
r184 500 501 4.6725 
r185 497 614 0.00756288 
r186 496 615 0.00756288 
r187 491 614 0.049467 
r188 491 492 3.2 
r189 486 597 0.02 
r190 486 487 4.6725 
r191 485 613 0.00756288 
r192 484 614 0.00756288 
r193 484 485 0.0983851 
r194 479 613 0.049467 
r195 479 480 3.2 
r196 474 595 0.02 
r197 474 475 4.6725 
r198 473 612 0.00756288 
r199 472 613 0.00756288 
r200 472 473 0.0977245 
r201 467 612 0.049467 
r202 467 468 3.2 
r203 462 594 0.02 
r204 462 463 4.6725 
r205 461 611 0.00756288 
r206 460 612 0.00756288 
r207 460 461 0.0983851 
r208 455 611 0.049467 
r209 455 456 3.2 
r210 450 593 0.02 
r211 450 451 4.6725 
r212 449 610 0.00756288 
r213 448 611 0.00756288 
r214 448 449 0.0977245 
r215 443 610 0.049467 
r216 443 444 3.2 
r217 438 592 0.02 
r218 438 439 4.6725 
r219 437 609 0.00756288 
r220 436 610 0.00756288 
r221 436 437 0.0983851 
r222 431 609 0.049467 
r223 431 432 3.2 
r224 426 591 0.02 
r225 426 427 4.6725 
r226 425 608 0.00756288 
r227 424 609 0.00756288 
r228 424 425 0.0977245 
r229 419 608 0.049467 
r230 419 420 3.2 
r231 414 590 0.02 
r232 414 415 4.6725 
r233 413 607 0.00756288 
r234 412 608 0.00756288 
r235 412 413 0.0983851 
r236 407 607 0.049467 
r237 407 408 3.2 
r238 402 589 0.02 
r239 402 403 4.6725 
r240 401 606 0.00756288 
r241 400 607 0.00756288 
r242 400 401 0.0977245 
r243 395 606 0.049467 
r244 395 396 3.2 
r245 390 588 0.02 
r246 390 391 4.6725 
r247 387 697 0.0416807 
r248 386 606 0.00756288 
r249 381 383 0.0531765 
r250 496 380 0.0958084 
r251 497 380 0.00191617 
r252 380 381 0.0254118 
r253 377 588 0.0371989 
r254 376 702 0.02 
r255 375 693 0.02 
r256 373 691 0.197906 
r257 372 691 0.0872727 
r258 370 697 0.440336 
r259 369 387 0.438543 
r260 366 688 0.197906 
r261 365 688 0.0872727 
r262 186 380 0.109647 
r263 383 186 0.141176 
r264 372 186 0.0237611 
r265 365 186 0.0272668 
r266 183 386 0.213665 
r267 366 183 0.0739438 
r268 182 582 0.214658 
r269 182 373 0.0739438 
r270 161 605 0.0371989 
r271 156 161 0.0504102 
r272 376 156 0.0464401 
r273 154 370 0.0504102 
r274 375 154 0.0464401 
r275 145 377 0.0504102 
r276 145 146 0.0464401 
r277 143 369 0.0504102 
r278 143 144 0.0464401 
r279 140 146 0.0496984 
r280 140 141 0.401553 
r281 139 144 0.0496984 
r282 139 141 0.479223 
r283 47 624 0.603333 
r284 45 47 0.666667 
r285 42 45 0.581161 
r286 42 711 0.133333 
.ends

.subckt PM_PC3C04%CP 31 41 93 103 155 165 217 227 279 289 341 351 403 413 465
+ 475 683 686 706 713 720 727 734 741 748 755 762 769 776 783 790 797 804 811
c0 820 0 6.8256f
c1 809 0 5.28576f
c2 802 0 5.06036f
c3 795 0 5.056f
c4 788 0 5.0604f
c5 781 0 5.056f
c6 774 0 5.0604f
c7 767 0 5.056f
c8 760 0 5.15818f
c9 753 0 5.15357f
c10 746 0 5.0604f
c11 739 0 5.056f
c12 732 0 5.0604f
c13 725 0 5.056f
c14 718 0 5.0604f
c15 711 0 5.12341f
c16 706 0 0.00588308f
c17 704 0 5.5123f
c18 681 0 1.35523f
c19 662 0 63.2996f
c20 642 0 61.9292f
c21 493 0 1.37515f
c22 489 0 3.8332f
c23 485 0 1.26747f
c24 481 0 3.5155f
c25 475 0 0.00263035f
c26 472 0 2.19872f
c27 465 0 0.00177f
c28 462 0 2.20247f
c29 451 0 9.86837f
c30 443 0 9.38733f
c31 431 0 1.25429f
c32 427 0 3.49632f
c33 423 0 1.25832f
c34 419 0 3.51517f
c35 413 0 0.00263035f
c36 410 0 2.19872f
c37 403 0 0.00177f
c38 400 0 2.20247f
c39 389 0 9.38162f
c40 381 0 9.38733f
c41 369 0 1.25429f
c42 365 0 3.49632f
c43 361 0 1.25832f
c44 357 0 3.51517f
c45 351 0 0.00263035f
c46 348 0 2.19872f
c47 341 0 0.00177f
c48 338 0 2.20247f
c49 327 0 9.38162f
c50 319 0 9.38733f
c51 307 0 1.25429f
c52 303 0 3.49632f
c53 299 0 1.25832f
c54 295 0 3.51517f
c55 289 0 0.00263035f
c56 286 0 2.19872f
c57 279 0 0.00177f
c58 276 0 2.20247f
c59 265 0 9.38162f
c60 257 0 9.38733f
c61 245 0 1.25429f
c62 241 0 3.49632f
c63 237 0 1.25832f
c64 233 0 3.51517f
c65 227 0 0.00263035f
c66 224 0 2.19872f
c67 217 0 0.00177f
c68 214 0 2.20247f
c69 203 0 9.38162f
c70 195 0 9.38733f
c71 183 0 1.25429f
c72 179 0 3.49632f
c73 175 0 1.25832f
c74 171 0 3.51517f
c75 165 0 0.00263035f
c76 162 0 2.19872f
c77 155 0 0.00177f
c78 152 0 2.20247f
c79 141 0 9.38162f
c80 133 0 9.38733f
c81 121 0 1.25429f
c82 117 0 3.49632f
c83 113 0 1.25832f
c84 109 0 3.51517f
c85 103 0 0.00263035f
c86 100 0 2.19872f
c87 93 0 0.00177f
c88 90 0 2.20247f
c89 79 0 9.38162f
c90 71 0 9.38733f
c91 59 0 1.25613f
c92 55 0 3.49642f
c93 51 0 1.51786f
c94 47 0 3.87751f
c95 41 0 0.00263035f
c96 38 0 2.19872f
c97 31 0 0.00177f
c98 28 0 2.20247f
c99 17 0 9.38183f
c100 9 0 10.4477f
r101 809 811 4.57 
r102 802 804 4.57 
r103 795 797 4.57 
r104 788 790 4.57 
r105 781 783 4.57 
r106 774 776 4.57 
r107 767 769 4.57 
r108 760 762 4.57 
r109 753 755 4.57 
r110 746 748 4.57 
r111 739 741 4.57 
r112 732 734 4.57 
r113 725 727 4.57 
r114 718 720 4.57 
r115 711 713 4.57 
r116 704 706 4.57 
r117 683 820 0.325862 
r118 816 683 0.317586 
r119 681 683 0.133333 
r120 681 686 0.00121944 
r121 762 680 0.725 
r122 776 678 0.725 
r123 790 676 0.725 
r124 804 674 0.725 
r125 672 674 0.12 
r126 672 676 0.12 
r127 672 678 0.12 
r128 672 680 0.12 
r129 769 671 0.715 
r130 783 669 0.715 
r131 797 667 0.715 
r132 811 664 0.715 
r133 662 664 0.12 
r134 662 667 0.12 
r135 662 669 0.12 
r136 662 671 0.12 
r137 662 672 0.000178372 
r138 661 820 0.02 
r139 661 672 0.0897213 
r140 706 660 0.725 
r141 720 658 0.725 
r142 734 656 0.725 
r143 748 654 0.725 
r144 652 654 0.12 
r145 652 656 0.12 
r146 652 658 0.12 
r147 652 660 0.12 
r148 713 651 0.715 
r149 727 649 0.715 
r150 741 647 0.715 
r151 755 644 0.715 
r152 642 644 0.12 
r153 642 647 0.12 
r154 642 649 0.12 
r155 642 651 0.12 
r156 642 652 0.000182025 
r157 641 816 0.02 
r158 641 652 0.0915586 
r159 493 480 2.12 
r160 809 480 6 
r161 472 475 0.14 
r162 472 489 0.315789 
r163 485 470 2.12 
r164 802 470 6 
r165 462 465 0.14 
r166 462 481 0.315789 
r167 456 493 6 
r168 489 453 5.995 
r169 451 453 6 
r170 451 456 16.39 
r171 448 485 6 
r172 481 445 5.995 
r173 443 445 6 
r174 443 448 16.39 
r175 431 418 2.12 
r176 795 418 6 
r177 410 413 0.14 
r178 410 427 0.315789 
r179 423 408 2.12 
r180 788 408 6 
r181 400 403 0.14 
r182 400 419 0.315789 
r183 394 431 6 
r184 427 391 5.995 
r185 389 391 6 
r186 389 394 16.39 
r187 386 423 6 
r188 419 383 5.995 
r189 381 383 6 
r190 381 386 16.39 
r191 369 356 2.12 
r192 781 356 6 
r193 348 351 0.14 
r194 348 365 0.315789 
r195 361 346 2.12 
r196 774 346 6 
r197 338 341 0.14 
r198 338 357 0.315789 
r199 332 369 6 
r200 365 329 5.995 
r201 327 329 6 
r202 327 332 16.39 
r203 324 361 6 
r204 357 321 5.995 
r205 319 321 6 
r206 319 324 16.39 
r207 307 294 2.12 
r208 767 294 6 
r209 286 289 0.14 
r210 286 303 0.315789 
r211 299 284 2.12 
r212 760 284 6 
r213 276 279 0.14 
r214 276 295 0.315789 
r215 270 307 6 
r216 303 267 5.995 
r217 265 267 6 
r218 265 270 16.39 
r219 262 299 6 
r220 295 259 5.995 
r221 257 259 6 
r222 257 262 16.39 
r223 245 232 2.12 
r224 753 232 6 
r225 224 227 0.14 
r226 224 241 0.315789 
r227 237 222 2.12 
r228 746 222 6 
r229 214 217 0.14 
r230 214 233 0.315789 
r231 208 245 6 
r232 241 205 5.995 
r233 203 205 6 
r234 203 208 16.39 
r235 200 237 6 
r236 233 197 5.995 
r237 195 197 6 
r238 195 200 16.39 
r239 183 170 2.12 
r240 739 170 6 
r241 162 165 0.14 
r242 162 179 0.315789 
r243 175 160 2.12 
r244 732 160 6 
r245 152 155 0.14 
r246 152 171 0.315789 
r247 146 183 6 
r248 179 143 5.995 
r249 141 143 6 
r250 141 146 16.39 
r251 138 175 6 
r252 171 135 5.995 
r253 133 135 6 
r254 133 138 16.39 
r255 121 108 2.12 
r256 725 108 6 
r257 100 103 0.14 
r258 100 117 0.315789 
r259 113 98 2.12 
r260 718 98 6 
r261 90 93 0.14 
r262 90 109 0.315789 
r263 84 121 6 
r264 117 81 5.995 
r265 79 81 6 
r266 79 84 16.39 
r267 76 113 6 
r268 109 73 5.995 
r269 71 73 6 
r270 71 76 16.39 
r271 59 46 2.12 
r272 711 46 6 
r273 38 41 0.14 
r274 38 55 0.315789 
r275 51 36 2.12 
r276 704 36 6 
r277 28 31 0.14 
r278 28 47 0.315789 
r279 22 59 6 
r280 55 19 5.995 
r281 17 19 6 
r282 17 22 16.39 
r283 14 51 6 
r284 47 11 5.995 
r285 9 11 6 
r286 9 14 16.39 
.ends

.subckt PM_PC3C04%NODE 135 137 153 302 304 320 469 471 487 636 638 654 803 805
+ 821 970 972 988 1137 1139 1155 1304 1306 1322 1593 1595 1599 1603 1607 1609
+ 1613 1615 1619 1623 1627 1629 1633 1635 1639 1643 1647 1649 1653 1655 1659 1663
+ 1667 1669 1673 1675 1679 1683 1687 1689 1693 1695 1699 1703 1707 1709 1713 1715
+ 1719 1723 1727 1729 1733 1735 1739 1743 1747 1749 1776 1777 1783 1789 1795 1801
+ 1807 1813
c0 1813 0 3.15176f
c1 1807 0 3.15176f
c2 1801 0 3.15176f
c3 1795 0 3.15176f
c4 1789 0 3.15176f
c5 1783 0 3.15176f
c6 1777 0 3.15176f
c7 1776 0 3.15176f
c8 1749 0 1.60673f
c9 1747 0 0.820153f
c10 1743 0 1.39496f
c11 1739 0 1.39496f
c12 1735 0 1.39678f
c13 1733 0 0.594972f
c14 1729 0 1.39678f
c15 1727 0 0.594676f
c16 1723 0 1.3933f
c17 1719 0 1.3933f
c18 1715 0 1.39512f
c19 1713 0 0.594987f
c20 1709 0 1.39512f
c21 1707 0 0.594676f
c22 1703 0 1.3933f
c23 1699 0 1.3933f
c24 1695 0 1.39678f
c25 1693 0 0.594987f
c26 1689 0 1.39678f
c27 1687 0 0.594676f
c28 1683 0 1.39496f
c29 1679 0 1.39496f
c30 1675 0 1.24928f
c31 1673 0 0.594987f
c32 1669 0 1.24928f
c33 1667 0 0.594676f
c34 1663 0 1.39496f
c35 1659 0 1.39496f
c36 1655 0 1.39678f
c37 1653 0 0.594987f
c38 1649 0 1.39678f
c39 1647 0 0.594676f
c40 1643 0 1.3933f
c41 1639 0 1.3933f
c42 1635 0 1.39512f
c43 1633 0 0.594987f
c44 1629 0 1.39512f
c45 1627 0 0.594676f
c46 1623 0 1.3933f
c47 1619 0 1.3933f
c48 1615 0 1.39678f
c49 1613 0 0.594987f
c50 1609 0 1.39678f
c51 1607 0 0.594676f
c52 1603 0 1.39496f
c53 1599 0 1.32148f
c54 1595 0 2.0648f
c55 1593 0 0.822378f
c56 1336 0 0.214184f
c57 1330 0 2.86801f
c58 1322 0 1.40808f
c59 1319 0 0.334383f
c60 1317 0 5.01386f
c61 1310 0 0.285339f
c62 1306 0 0.592015f
c63 1304 0 0.59248f
c64 1278 0 1.78228f
c65 1272 0 0.253281f
c66 1266 0 12.1064f
c67 1260 0 0.235725f
c68 1258 0 0.0685981f
c69 1199 0 0.112237f
c70 1197 0 0.00915476f
c71 1196 0 0.0924665f
c72 1192 0 0.0667564f
c73 1191 0 0.00915476f
c74 1186 0 0.0924971f
c75 1184 0 0.0285163f
c76 1180 0 0.0578101f
c77 1179 0 0.0894794f
c78 1178 0 0.162445f
c79 1176 0 0.0207811f
c80 1175 0 0.0987158f
c81 1174 0 0.0207811f
c82 1173 0 0.034125f
c83 1172 0 0.126743f
c84 1171 0 0.0249126f
c85 1169 0 0.211137f
c86 1163 0 2.86589f
c87 1155 0 1.40808f
c88 1152 0 0.35013f
c89 1143 0 0.283627f
c90 1139 0 0.592219f
c91 1137 0 0.592531f
c92 1111 0 1.76504f
c93 1105 0 0.249207f
c94 1099 0 12.1255f
c95 1093 0 0.235651f
c96 1091 0 0.0685981f
c97 1032 0 0.108385f
c98 1030 0 0.00915476f
c99 1029 0 0.0924665f
c100 1025 0 0.0667564f
c101 1024 0 0.00915476f
c102 1019 0 0.0924714f
c103 1017 0 0.0285163f
c104 1013 0 0.0535894f
c105 1012 0 0.0891146f
c106 1011 0 0.158403f
c107 1009 0 0.0207811f
c108 1008 0 0.0987158f
c109 1007 0 0.0207811f
c110 1006 0 0.034125f
c111 1005 0 0.126743f
c112 1004 0 0.0249126f
c113 1002 0 0.211137f
c114 996 0 2.86589f
c115 988 0 1.40808f
c116 985 0 0.35013f
c117 976 0 0.283627f
c118 972 0 0.592219f
c119 970 0 0.592531f
c120 944 0 1.76504f
c121 938 0 0.249207f
c122 932 0 12.1255f
c123 926 0 0.235651f
c124 924 0 0.0685981f
c125 865 0 0.108385f
c126 863 0 0.00915476f
c127 862 0 0.0924665f
c128 858 0 0.0667564f
c129 857 0 0.00915476f
c130 852 0 0.0924714f
c131 850 0 0.0285163f
c132 846 0 0.0535894f
c133 845 0 0.0891146f
c134 844 0 0.158403f
c135 842 0 0.0207811f
c136 841 0 0.0987158f
c137 840 0 0.0207811f
c138 839 0 0.034125f
c139 838 0 0.126743f
c140 837 0 0.0249126f
c141 835 0 0.211137f
c142 829 0 2.86589f
c143 821 0 1.40808f
c144 818 0 0.35013f
c145 809 0 0.283627f
c146 805 0 0.592219f
c147 803 0 0.592531f
c148 777 0 1.76504f
c149 771 0 0.249207f
c150 765 0 12.1255f
c151 759 0 0.235651f
c152 757 0 0.0685981f
c153 698 0 0.108385f
c154 696 0 0.00915476f
c155 695 0 0.0924665f
c156 691 0 0.0667564f
c157 690 0 0.00915476f
c158 685 0 0.0924714f
c159 683 0 0.0285163f
c160 679 0 0.0535894f
c161 678 0 0.0891146f
c162 677 0 0.158403f
c163 675 0 0.0207811f
c164 674 0 0.0987158f
c165 673 0 0.0207811f
c166 672 0 0.034125f
c167 671 0 0.126743f
c168 670 0 0.0249126f
c169 668 0 0.211137f
c170 662 0 2.86589f
c171 654 0 1.40808f
c172 651 0 0.35013f
c173 642 0 0.283627f
c174 638 0 0.592219f
c175 636 0 0.592531f
c176 610 0 1.76504f
c177 604 0 0.249207f
c178 598 0 12.1255f
c179 592 0 0.235651f
c180 590 0 0.0685981f
c181 531 0 0.108385f
c182 529 0 0.00915476f
c183 528 0 0.0924665f
c184 524 0 0.0667564f
c185 523 0 0.00915476f
c186 518 0 0.0924714f
c187 516 0 0.0285163f
c188 512 0 0.0535894f
c189 511 0 0.0891146f
c190 510 0 0.158403f
c191 508 0 0.0207811f
c192 507 0 0.0987158f
c193 506 0 0.0207811f
c194 505 0 0.034125f
c195 504 0 0.126743f
c196 503 0 0.0249126f
c197 501 0 0.211137f
c198 495 0 2.86589f
c199 487 0 1.40808f
c200 484 0 0.35013f
c201 475 0 0.283627f
c202 471 0 0.592219f
c203 469 0 0.592531f
c204 443 0 1.76504f
c205 437 0 0.249207f
c206 431 0 12.1255f
c207 425 0 0.235651f
c208 423 0 0.0685981f
c209 364 0 0.108385f
c210 362 0 0.00915476f
c211 361 0 0.0924665f
c212 357 0 0.0667564f
c213 356 0 0.00915476f
c214 351 0 0.0924714f
c215 349 0 0.0285163f
c216 345 0 0.0535894f
c217 344 0 0.0891146f
c218 343 0 0.158403f
c219 341 0 0.0207811f
c220 340 0 0.0987158f
c221 339 0 0.0207811f
c222 338 0 0.034125f
c223 337 0 0.126743f
c224 336 0 0.0249126f
c225 334 0 0.211137f
c226 328 0 2.86589f
c227 320 0 1.40808f
c228 317 0 0.35013f
c229 308 0 0.283627f
c230 304 0 0.592219f
c231 302 0 0.592531f
c232 276 0 1.76504f
c233 270 0 0.249207f
c234 264 0 12.1255f
c235 258 0 0.235651f
c236 256 0 0.0685981f
c237 197 0 0.108385f
c238 195 0 0.00915476f
c239 194 0 0.0924665f
c240 190 0 0.0667564f
c241 189 0 0.00915476f
c242 184 0 0.0924714f
c243 182 0 0.0285163f
c244 178 0 0.0535894f
c245 177 0 0.0891146f
c246 176 0 0.158403f
c247 174 0 0.0207811f
c248 173 0 0.0987158f
c249 172 0 0.0207811f
c250 171 0 0.034125f
c251 170 0 0.126743f
c252 169 0 0.0249126f
c253 167 0 0.210767f
c254 161 0 2.89709f
c255 153 0 1.40828f
c256 150 0 0.338199f
c257 141 0 0.286734f
c258 137 0 0.592219f
c259 135 0 0.592531f
c260 109 0 1.777f
c261 103 0 0.252452f
c262 97 0 12.1132f
c263 91 0 0.235651f
c264 89 0 0.0698333f
c265 30 0 0.108409f
c266 28 0 0.00915476f
c267 27 0 0.0924665f
c268 23 0 0.0667564f
c269 22 0 0.00915476f
c270 17 0 0.0928474f
c271 15 0 0.0285163f
c272 11 0 0.0535894f
c273 10 0 0.0891146f
c274 9 0 0.158403f
c275 7 0 0.0207811f
c276 6 0 0.101449f
c277 5 0 0.0207811f
c278 4 0 0.0405841f
c279 3 0 0.126955f
c280 2 0 0.0299968f
r281 1831 1832 0.786667 
r282 1830 1831 0.786667 
r283 1829 1830 0.786667 
r284 1828 1829 0.786667 
r285 1827 1828 0.786667 
r286 1825 1827 0.786667 
r287 1776 1823 0.47 
r288 1322 1327 1.2725 
r289 1319 1336 2 
r290 1832 1317 0.786667 
r291 1823 1317 6 
r292 1310 1313 0.000863309 
r293 1310 1330 6 
r294 1278 1336 1.41333 
r295 1276 1278 6 
r296 1274 1276 2.20833 
r297 1274 1317 6 
r298 1327 1272 6 
r299 1270 1272 6 
r300 1270 1274 4.895 
r301 1330 1268 2.67833 
r302 1266 1268 6 
r303 1266 1270 3.82333 
r304 1259 1319 0.231667 
r305 1258 1260 0.114595 
r306 1258 1259 0.02 
r307 1201 1747 238 
r308 1200 1749 542.333 
r309 1196 1313 14.2857 
r310 1196 1197 2.23066 
r311 1195 1306 238 
r312 1195 1197 0.93595 
r313 1194 1743 542.333 
r314 1193 1194 1.57738 
r315 1192 1260 10.6667 
r316 1192 1193 5.83616 
r317 1190 1313 14.2857 
r318 1190 1191 2.23066 
r319 1189 1304 238 
r320 1189 1191 0.93595 
r321 1188 1739 542.333 
r322 1187 1188 1.57443 
r323 1186 1260 10 
r324 1186 1187 6.07866 
r325 1183 1735 542.333 
r326 1182 1733 238 
r327 1180 1201 3.37824 
r328 1180 1199 8.28571 
r329 1179 1193 4.40759 
r330 1178 1200 3.35237 
r331 1178 1179 30.3333 
r332 1177 1197 2.23066 
r333 1176 1199 12 
r334 1176 1177 8.28571 
r335 1184 1175 12 
r336 1174 1191 2.23066 
r337 1174 1175 8.28571 
r338 1173 1183 3.35237 
r339 1172 1187 4.24659 
r340 1172 1173 31 
r341 1171 1182 3.37824 
r342 1184 1171 8.28571 
r343 1155 1160 1.2725 
r344 1152 1169 2 
r345 1813 1149 0.47 
r346 1149 1832 6 
r347 1143 1146 0.000863309 
r348 1143 1163 6 
r349 1111 1169 1.41333 
r350 1109 1111 6 
r351 1107 1109 2.20833 
r352 1107 1832 6 
r353 1160 1105 6 
r354 1103 1105 6 
r355 1103 1107 4.895 
r356 1163 1101 2.67833 
r357 1099 1101 6 
r358 1099 1103 3.82333 
r359 1092 1152 0.231667 
r360 1091 1093 0.114595 
r361 1091 1092 0.02 
r362 1034 1727 238 
r363 1033 1729 542.333 
r364 1029 1146 14.2857 
r365 1029 1030 2.23066 
r366 1028 1139 238 
r367 1028 1030 0.93595 
r368 1027 1723 542.333 
r369 1026 1027 1.57738 
r370 1025 1093 10.6667 
r371 1025 1026 5.83616 
r372 1023 1146 14.2857 
r373 1023 1024 2.23066 
r374 1022 1137 238 
r375 1022 1024 0.93595 
r376 1021 1719 542.333 
r377 1020 1021 1.57443 
r378 1019 1093 10 
r379 1019 1020 6.07866 
r380 1016 1715 542.333 
r381 1015 1713 238 
r382 1013 1034 3.37824 
r383 1013 1032 8.28571 
r384 1012 1026 4.40759 
r385 1011 1033 3.35237 
r386 1011 1012 30.3333 
r387 1010 1030 2.23066 
r388 1009 1032 12 
r389 1009 1010 8.28571 
r390 1017 1008 12 
r391 1007 1024 2.23066 
r392 1007 1008 8.28571 
r393 1006 1016 3.35237 
r394 1005 1020 4.24659 
r395 1005 1006 31 
r396 1004 1015 3.37824 
r397 1017 1004 8.28571 
r398 988 993 1.2725 
r399 985 1002 2 
r400 1807 982 0.47 
r401 982 1831 6 
r402 976 979 0.000863309 
r403 976 996 6 
r404 944 1002 1.41333 
r405 942 944 6 
r406 940 942 2.20833 
r407 940 1831 6 
r408 993 938 6 
r409 936 938 6 
r410 936 940 4.895 
r411 996 934 2.67833 
r412 932 934 6 
r413 932 936 3.82333 
r414 925 985 0.231667 
r415 924 926 0.114595 
r416 924 925 0.02 
r417 867 1707 238 
r418 866 1709 542.333 
r419 862 979 14.2857 
r420 862 863 2.23066 
r421 861 972 238 
r422 861 863 0.93595 
r423 860 1703 542.333 
r424 859 860 1.57738 
r425 858 926 10.6667 
r426 858 859 5.83616 
r427 856 979 14.2857 
r428 856 857 2.23066 
r429 855 970 238 
r430 855 857 0.93595 
r431 854 1699 542.333 
r432 853 854 1.57443 
r433 852 926 10 
r434 852 853 6.07866 
r435 849 1695 542.333 
r436 848 1693 238 
r437 846 867 3.37824 
r438 846 865 8.28571 
r439 845 859 4.40759 
r440 844 866 3.35237 
r441 844 845 30.3333 
r442 843 863 2.23066 
r443 842 865 12 
r444 842 843 8.28571 
r445 850 841 12 
r446 840 857 2.23066 
r447 840 841 8.28571 
r448 839 849 3.35237 
r449 838 853 4.24659 
r450 838 839 31 
r451 837 848 3.37824 
r452 850 837 8.28571 
r453 821 826 1.2725 
r454 818 835 2 
r455 1801 815 0.47 
r456 815 1830 6 
r457 809 812 0.000863309 
r458 809 829 6 
r459 777 835 1.41333 
r460 775 777 6 
r461 773 775 2.20833 
r462 773 1830 6 
r463 826 771 6 
r464 769 771 6 
r465 769 773 4.895 
r466 829 767 2.67833 
r467 765 767 6 
r468 765 769 3.82333 
r469 758 818 0.231667 
r470 757 759 0.114595 
r471 757 758 0.02 
r472 700 1687 238 
r473 699 1689 542.333 
r474 695 812 14.2857 
r475 695 696 2.23066 
r476 694 805 238 
r477 694 696 0.93595 
r478 693 1683 542.333 
r479 692 693 1.57738 
r480 691 759 10.6667 
r481 691 692 5.83616 
r482 689 812 14.2857 
r483 689 690 2.23066 
r484 688 803 238 
r485 688 690 0.93595 
r486 687 1679 542.333 
r487 686 687 1.57443 
r488 685 759 10 
r489 685 686 6.07866 
r490 682 1675 542.333 
r491 681 1673 238 
r492 679 700 3.37824 
r493 679 698 8.28571 
r494 678 692 4.40759 
r495 677 699 3.35237 
r496 677 678 30.3333 
r497 676 696 2.23066 
r498 675 698 12 
r499 675 676 8.28571 
r500 683 674 12 
r501 673 690 2.23066 
r502 673 674 8.28571 
r503 672 682 3.35237 
r504 671 686 4.24659 
r505 671 672 31 
r506 670 681 3.37824 
r507 683 670 8.28571 
r508 654 659 1.2725 
r509 651 668 2 
r510 1795 648 0.47 
r511 648 1829 6 
r512 642 645 0.000863309 
r513 642 662 6 
r514 610 668 1.41333 
r515 608 610 6 
r516 606 608 2.20833 
r517 606 1829 6 
r518 659 604 6 
r519 602 604 6 
r520 602 606 4.895 
r521 662 600 2.67833 
r522 598 600 6 
r523 598 602 3.82333 
r524 591 651 0.231667 
r525 590 592 0.114595 
r526 590 591 0.02 
r527 533 1667 238 
r528 532 1669 542.333 
r529 528 645 14.2857 
r530 528 529 2.23066 
r531 527 638 238 
r532 527 529 0.93595 
r533 526 1663 542.333 
r534 525 526 1.57738 
r535 524 592 10.6667 
r536 524 525 5.83616 
r537 522 645 14.2857 
r538 522 523 2.23066 
r539 521 636 238 
r540 521 523 0.93595 
r541 520 1659 542.333 
r542 519 520 1.57443 
r543 518 592 10 
r544 518 519 6.07866 
r545 515 1655 542.333 
r546 514 1653 238 
r547 512 533 3.37824 
r548 512 531 8.28571 
r549 511 525 4.40759 
r550 510 532 3.35237 
r551 510 511 30.3333 
r552 509 529 2.23066 
r553 508 531 12 
r554 508 509 8.28571 
r555 516 507 12 
r556 506 523 2.23066 
r557 506 507 8.28571 
r558 505 515 3.35237 
r559 504 519 4.24659 
r560 504 505 31 
r561 503 514 3.37824 
r562 516 503 8.28571 
r563 487 492 1.2725 
r564 484 501 2 
r565 1789 481 0.47 
r566 481 1828 6 
r567 475 478 0.000863309 
r568 475 495 6 
r569 443 501 1.41333 
r570 441 443 6 
r571 439 441 2.20833 
r572 439 1828 6 
r573 492 437 6 
r574 435 437 6 
r575 435 439 4.895 
r576 495 433 2.67833 
r577 431 433 6 
r578 431 435 3.82333 
r579 424 484 0.231667 
r580 423 425 0.114595 
r581 423 424 0.02 
r582 366 1647 238 
r583 365 1649 542.333 
r584 361 478 14.2857 
r585 361 362 2.23066 
r586 360 471 238 
r587 360 362 0.93595 
r588 359 1643 542.333 
r589 358 359 1.57738 
r590 357 425 10.6667 
r591 357 358 5.83616 
r592 355 478 14.2857 
r593 355 356 2.23066 