* File: pc3d21eu.dist.sp.pex
* Created: Sun Jul  4 12:32:30 2010
* Program "Calibre xRC"
* Version "v2008.4_19.14"
* Nominal Temperature: 27C
* Circuit Temperature: 27C
* 
.subckt PM_PC3D21EU%U17_U1_U6_drain 15 50 59
c0 63 0 1.03186f
c1 59 0 4.09112e-19
c2 55 0 16.03f
c3 50 0 0.599167f
c4 42 0 0.089414f
c5 40 0 1.76378f
c6 33 0 0.602234f
c7 31 0 1.25845f
c8 28 0 0.37738f
c9 22 0 1.46341f
c10 21 0 0.0421873f
c11 19 0 0.0269205f
c12 15 0 1.53312f
r13 63 42 1.40571 
r14 41 50 52.3333 
r15 41 42 2.1393 
r16 40 59 2.31375 
r17 39 40 6 
r18 36 55 6 
r19 31 33 6 
r20 31 36 1.33 
r21 28 63 6 
r22 26 39 0.0232279 
r23 26 28 0.461429 
r24 24 55 2.916 
r25 22 24 6 
r26 21 39 0.0217293 
r27 21 22 2.585 
r28 19 33 0.611429 
r29 14 19 0.0414583 
r30 14 15 1.1 
.ends

.subckt PM_PC3D21EU%VDDO 824 892 903 914 925 936 947 958 973 1196 1205 1207
+ 1260 1268 1270 1489 1494 1547 1551 1554 1558 1566 1573 1580 1589 1599 1612 1618
+ 1624 1668 1680 1683 1688
c0 1688 0 20.6064f
c1 1680 0 48.3859f
c2 1665 0 3.08703f
c3 1631 0 1.30277f
c4 1624 0 1.04498f
c5 1618 0 2.03755f
c6 1612 0 2.02337f
c7 1609 0 3.35178f
c8 1596 0 0.505012f
c9 1592 0 29.4284f
c10 1591 0 1.97484f
c11 1589 0 63.3455f
c12 1572 0 51.3495f
c13 1563 0 0.696813f
c14 1561 0 1.13092f
c15 1558 0 3.03085f
c16 1551 0 2.50175f
c17 1544 0 0.0725226f
c18 1542 0 1.09133f
c19 1533 0 0.149245f
c20 1529 0 0.566044f
c21 1523 0 0.223823f
c22 1519 0 0.331096f
c23 1515 0 0.19089f
c24 1511 0 0.439195f
c25 1506 0 2.04932f
c26 1505 0 1.02494f
c27 1503 0 0.0714314f
c28 1502 0 0.111846f
c29 1498 0 0.58866f
c30 1489 0 0.986601f
c31 1487 0 0.0650861f
c32 1486 0 0.139432f
c33 1454 0 9.82123f
c34 1453 0 9.76182f
c35 1285 0 9.45598f
c36 1284 0 2.16622f
c37 1282 0 1.7294f
c38 1270 0 0.598525f
c39 1268 0 0.312038f
c40 1260 0 0.0819925f
c41 1249 0 0.320675f
c42 1238 0 0.119988f
c43 1228 0 0.118674f
c44 1224 0 0.130792f
c45 1222 0 7.72276f
c46 1221 0 9.11661f
c47 1214 0 0.0962101f
c48 1207 0 0.329267f
c49 1205 0 0.680162f
c50 1203 0 0.042861f
c51 1202 0 0.964646f
c52 1196 0 1.25749f
c53 1120 0 3.63084f
c54 1085 0 5.3877f
c55 1070 0 1.29937f
c56 1066 0 0.615713f
c57 1062 0 8.97148f
c58 1060 0 6.7868f
c59 1058 0 0.588747f
c60 1052 0 0.170971f
c61 1049 0 0.0533066f
c62 1047 0 0.0989764f
c63 973 0 7.73639f
c64 965 0 7.34537f
c65 962 0 11.7829f
c66 951 0 19.5558f
c67 940 0 19.5558f
c68 929 0 19.5835f
c69 918 0 19.5558f
c70 907 0 19.5558f
c71 896 0 11.9003f
c72 849 0 0.210878f
c73 812 0 0.0533066f
c74 801 0 0.114944f
c75 800 0 5.95173f
c76 797 0 0.104443f
c77 796 0 6.22353f
c78 17 0 0.152029f
c79 16 0 6.71646f
c80 7 0 0.152029f
c81 6 0 6.75738f
r82 1683 1686 0.00394881 
r83 1677 1678 0.241481 
r84 1676 1677 0.0958606 
r85 1675 1676 0.0141176 
r86 1674 1675 0.10841 
r87 1673 1674 0.0270153 
r88 1672 1673 0.0699782 
r89 1667 1680 0.00304139 
r90 1678 1667 0.00174292 
r91 1665 1667 0.461538 
r92 1661 1663 0.0028 
r93 1631 1677 0.5 
r94 1627 1676 0.5 
r95 1624 1627 0.4025 
r96 1621 1675 0.5 
r97 1618 1621 1.63 
r98 1615 1673 0.5 
r99 1612 1615 1.455 
r100 1611 1672 0.00174292 
r101 1668 1611 0.00305011 
r102 1609 1611 0.461538 
r103 1603 1688 0.0039415 
r104 1686 1603 0.467422 
r105 1601 1603 0.5 
r106 1599 1601 0.181 
r107 1596 1599 0.17 
r108 1596 1678 1.5 
r109 1593 1594 0.5433 
r110 1592 1593 0.2287 
r111 1591 1594 0.099 
r112 1587 1589 0.0136564 
r113 1586 1587 0.0314855 
r114 1585 1586 0.0601494 
r115 1584 1585 0.0634357 
r116 1583 1584 0.0334274 
r117 1580 1583 0.01361 
r118 1569 1686 0.5 
r119 1566 1569 0.181 
r120 1563 1566 0.17 
r121 1563 1672 1.5 
r122 1561 1592 0.5307 
r123 1663 1540 0.1836 
r124 1523 1663 6 
r125 1544 1504 0.0456991 
r126 1504 1505 2.06857 
r127 1502 1505 0.0446983 
r128 1502 1503 0.0971429 
r129 1500 1503 0.0446983 
r130 1500 1542 1.64571 
r131 1494 1498 0.0108889 
r132 1493 1631 1.80774 
r133 1488 1498 0.02 
r134 1488 1489 1.0375 
r135 1487 1493 0.0452993 
r136 1494 1486 0.104301 
r137 1486 1487 0.192632 
r138 1454 1540 0.0784 
r139 1453 1661 0.2648 
r140 1452 1661 0.2664 
r141 1451 1661 0.2664 
r142 1287 1529 1.5 
r143 1285 1287 7.7729 
r144 1284 1285 5.07226 
r145 1277 1519 1 
r146 1266 1533 3 
r147 1263 1266 0.2885 
r148 1263 1515 2 
r149 1260 1263 2.755 
r150 1259 1260 2.0015 
r151 1258 1259 0.322 
r152 1523 1251 0.000149533 
r153 1561 1250 0.0501566 
r154 1250 1251 6 
r155 1249 1540 1.5 
r156 1561 1248 0.0247474 
r157 1248 1249 1.5 
r158 1515 1247 0.000233918 
r159 1593 1247 2 
r160 1519 1245 0.000100503 
r161 1594 1245 1 
r162 1529 1243 0.000138648 
r163 1592 1243 1.5 
r164 1533 1241 0.000299625 
r165 1593 1241 3 
r166 1544 1238 6 
r167 1542 1235 0.0557895 
r168 1235 1258 3 
r169 1270 1234 0.585 
r170 1511 1234 6 
r171 1511 1231 0.6375 
r172 1231 1285 6 
r173 1229 1259 6 
r174 1228 1282 0.0561431 
r175 1506 1228 6 
r176 1225 1229 3.26571 
r177 1506 1225 0.524286 
r178 1225 1284 6 
r179 1268 1224 0.0621053 
r180 1674 1224 2 
r181 1222 1277 0.219259 
r182 1221 1266 0.0845 
r183 1214 1258 0.8885 
r184 1213 1665 0.526 
r185 1213 1222 0.0447005 
r186 1212 1665 2.122 
r187 1212 1221 0.0446983 
r188 1205 1207 0.81913 
r189 1204 1207 0.344348 
r190 1202 1204 0.0446983 
r191 1202 1203 2.4313 
r192 1200 1203 0.0447246 
r193 1200 1282 4.36667 
r194 1195 1238 0.0422277 
r195 1195 1196 1.5875 
r196 1189 1609 2.122 
r197 1189 1214 0.0446983 
r198 1122 1123 0.490516 
r199 1121 1122 0.232864 
r200 1120 1121 0.279437 
r201 1111 1112 0.279231 
r202 1110 1111 0.2665 
r203 1101 1102 0.273962 
r204 1100 1101 0.261472 
r205 1087 1088 0.278131 
r206 1084 1558 0.0526456 
r207 1554 1084 0.0552365 
r208 1585 1084 0.00227273 
r209 1583 1082 3 
r210 1583 1080 0.666667 
r211 1584 1078 1.5 
r212 1586 1076 1.5 
r213 1587 1074 3 
r214 1587 1072 3 
r215 1587 1070 2 
r216 1068 1551 0.0620926 
r217 1547 1068 0.0688218 
r218 1578 1068 0.0025 
r219 1062 1100 3.77358e-05 
r220 1060 1110 3.84615e-05 
r221 1052 1120 0.117559 
r222 1051 1052 0.119812 
r223 1051 1058 0.181784 
r224 1050 1072 0.0101408 
r225 1049 1070 0.122066 
r226 1048 1085 0.0616822 
r227 1047 1048 0.08 
r228 1047 1066 0.274084 
r229 976 978 0.0829907 
r230 976 1123 0.1 
r231 978 973 0.159252 
r232 973 985 0.159252 
r233 973 976 0.0291589 
r234 965 973 0.159252 
r235 962 1076 1.5 
r236 958 962 0.793846 
r237 955 958 0.842637 
r238 955 1078 1.5 
r239 947 951 0.55145 
r240 944 947 0.585344 
r241 936 940 0.55145 
r242 933 936 0.585344 
r243 925 929 0.55145 
r244 922 925 0.585344 
r245 918 1112 1.5 
r246 914 918 0.55145 
r247 911 914 0.585344 
r248 911 1102 1.5 
r249 907 1111 1.5 
r250 903 907 0.55145 
r251 900 903 0.585344 
r252 900 1101 1.5 
r253 896 1110 1.5 
r254 892 896 0.793846 
r255 889 892 0.842637 
r256 889 1100 1.5 
r257 884 1092 0.2 
r258 973 884 0.0391734 
r259 867 1087 0.185047 
r260 1085 867 0.0930841 
r261 865 867 0.2 
r262 865 973 0.0397569 
r263 855 1080 0.231776 
r264 1092 855 0.232523 
r265 1583 855 1 
r266 944 853 1.5 
r267 853 1078 0.261509 
r268 1584 853 1.5 
r269 951 851 1.5 
r270 851 1076 0.266538 
r271 1586 851 1.5 
r272 1587 849 1 
r273 847 1092 0.231028 
r274 1082 847 0.278131 
r275 1583 847 0.6 
r276 933 845 1.5 
r277 845 853 0.273962 
r278 1584 845 1.5 
r279 940 843 1.5 
r280 843 851 0.279231 
r281 1586 843 1.5 
r282 841 1072 0.279437 
r283 1074 841 0.279437 
r284 1587 841 0.6 
r285 839 1082 0.139065 
r286 1088 839 0.683365 
r287 1583 839 2 
r288 922 837 1.5 
r289 837 845 0.273962 
r290 1102 837 0.273962 
r291 1584 837 1.5 
r292 929 835 1.5 
r293 835 843 0.279231 
r294 1112 835 0.279231 
r295 1586 835 1.5 
r296 833 1074 0.232864 
r297 1123 833 0.139343 
r298 1587 833 0.857143 
r299 830 1087 2 
r300 830 1085 0.666667 
r301 830 1066 0.666667 
r302 1573 830 0.0165962 
r303 830 1088 0.666667 
r304 828 1101 1.5 
r305 828 1062 1.5 
r306 828 1578 0.0805639 
r307 830 828 0.0404834 
r308 828 1102 1.5 
r309 826 1111 1.5 
r310 826 1060 1.5 
r311 1572 826 0.0330312 
r312 1578 826 0.0694058 
r313 826 1112 1.5 
r314 824 1121 3 
r315 824 1120 0.666667 
r316 824 1058 0.6 
r317 824 1591 0.0532592 
r318 824 1572 0.0241042 
r319 824 1122 0.666667 
r320 814 849 0.0239252 
r321 814 1049 0.04 
r322 812 849 0.135327 
r323 812 1050 0.04 
r324 807 985 0.73271 
r325 806 965 0.737944 
r326 805 973 0.73271 
r327 804 973 0.737944 
r328 801 805 0.0451326 
r329 801 973 2.504 
r330 800 807 0.0451326 
r331 800 973 2.44889 
r332 797 804 0.045921 
r333 797 973 2.687 
r334 796 806 0.045921 
r335 796 973 2.885 
r336 1454 17 0.0447329 
r337 17 1661 1.51848 
r338 16 1453 0.0447329 
r339 16 1661 1.51162 
r340 1452 7 0.0447329 
r341 7 1661 1.51848 
r342 6 1451 0.0447329 
r343 6 1661 1.51162 
.ends

.subckt PM_PC3D21EU%U14_padr 12 73 81 148 150 152 154 164 203
c0 278 0 9.32034f
c1 276 0 2.95165f
c2 272 0 15.7396f
c3 266 0 0.337694f
c4 264 0 15.6923f
c5 258 0 5.48301f
c6 254 0 5.64067f
c7 252 0 0.501133f
c8 250 0 0.0674659f
c9 249 0 0.194953f
c10 248 0 0.392287f
c11 235 0 1.17954f
c12 233 0 0.117043f
c13 232 0 0.0311661f
c14 229 0 1.75323f
c15 219 0 2.3407f
c16 213 0 0.568488f
c17 211 0 0.590943f
c18 205 0 0.308355f
c19 204 0 0.703354f
c20 180 0 0.0669466f
c21 173 0 0.0686124f
c22 164 0 1.36356f
c23 162 0 15.9681f
c24 154 0 0.513151f
c25 152 0 0.880399f
c26 150 0 0.733214f
c27 148 0 0.80966f
c28 119 0 1.42227f
c29 117 0 0.119165f
c30 113 0 1.4206f
c31 110 0 0.506462f
c32 105 0 0.550968f
c33 102 0 0.435871f
c34 99 0 0.0423217f
c35 98 0 0.0207942f
c36 96 0 0.0951496f
c37 89 0 0.127413f
c38 87 0 0.0819861f
c39 85 0 0.0677957f
c40 84 0 0.144768f
c41 81 0 1.40619f
c42 78 0 0.0421449f
c43 77 0 0.428797f
c44 73 0 1.95987f
c45 33 0 0.0781667f
c46 32 0 0.113767f
c47 28 0 0.108238f
c48 19 0 0.0947324f
c49 18 0 0.0254874f
c50 17 0 0.0478417f
c51 16 0 0.0799189f
c52 12 0 1.07645f
r53 283 274 0.172857 
r54 272 274 6 
r55 268 270 6.38667 
r56 266 283 0.17 
r57 264 266 6 
r58 258 283 2 
r59 256 258 10.3129 
r60 278 254 0.185079 
r61 252 254 1.2 
r62 251 252 0.482857 
r63 249 251 0.0446983 
r64 249 250 0.125714 
r65 248 250 0.0446983 
r66 243 276 6 
r67 241 272 4.40533 
r68 270 241 4.18533 
r69 239 241 6 
r70 239 243 1.18026 
r71 237 264 4.40533 
r72 235 237 6 
r73 235 239 0.248312 
r74 232 233 0.0636735 
r75 228 232 0.0473078 
r76 212 276 3.89714 
r77 205 212 0.0446983 
r78 205 211 0.416623 
r79 204 278 0.18836 
r80 203 211 0.1041 
r81 161 162 1.136 
r82 143 152 95.1667 
r83 180 143 1.6393 
r84 126 148 95.6667 
r85 173 126 1.42502 
r86 119 180 2.95758 
r87 233 119 6 
r88 229 117 6 
r89 228 114 0.7375 
r90 229 114 2.8475 
r91 114 162 6 
r92 113 173 3.0425 
r93 226 113 6 
r94 110 226 1.25 
r95 110 270 6 
r96 164 109 1.5325 
r97 219 109 6 
r98 106 222 0.7875 
r99 219 106 2.88 
r100 106 161 6 
r101 222 105 6 
r102 102 217 0.482667 
r103 102 268 6 
r104 101 161 5.42667 
r105 217 101 6 
r106 99 117 0.0305882 
r107 94 105 0.895 
r108 93 96 0.0366667 
r109 93 94 0.02 
r110 92 164 1.3775 
r111 88 98 0.0383557 
r112 88 89 0.283077 
r113 87 99 0.0450655 
r114 86 98 0.0383557 
r115 86 87 0.206897 
r116 84 98 0.00526525 
r117 84 85 0.33 
r118 80 85 0.0446983 
r119 80 81 1.2575 
r120 79 81 1.3775 
r121 78 92 0.0447588 
r122 77 79 0.0447588 
r123 77 78 0.544 
r124 72 96 0.02 
r125 72 73 2.375 
r126 34 154 51.6667 
r127 33 89 6.25 
r128 32 34 6.03709 
r129 32 33 1.5 
r130 30 89 3.41667 
r131 29 30 1.73745 
r132 28 150 80.8333 
r133 28 29 5.4291 
r134 213 21 0.30381 
r135 19 21 3 
r136 18 19 0.109474 
r137 256 17 0.0446983 
r138 18 16 0.0456991 
r139 16 17 0.147143 
r140 13 248 0.407619 
r141 13 213 0.0446983 
r142 204 12 0.0147368 
.ends

.subckt PM_PC3D21EU%U17_U1_OUTSHIFT 20 59 71 86
c0 86 0 1.95859f
c1 84 0 0.965811f
c2 82 0 16.041f
c3 77 0 0.0929129f
c4 71 0 0.583221f
c5 55 0 0.87486f
c6 45 0 1.05519f
c7 41 0 1.44262f
c8 40 0 0.0454499f
c9 38 0 1.0963f
c10 35 0 0.424357f
c11 34 0 0.0408694f
c12 28 0 0.127171f
c13 27 0 0.724168f
c14 21 0 0.0384577f
c15 20 0 0.709988f
r16 61 71 52.3333 
r17 61 77 2.1393 
r18 55 59 3.93 
r19 53 84 6 
r20 50 82 6 
r21 86 47 1.525 
r22 45 47 6 
r23 45 50 1.31125 
r24 43 82 2.06 
r25 41 43 6 
r26 40 53 0.0223492 
r27 40 41 2.94143 
r28 38 77 1.42143 
r29 36 38 6 
r30 35 53 0.0223492 
r31 35 36 0.514286 
r32 33 84 1.60571 
r33 55 28 0.77573 
r34 28 27 0.071405 
r35 34 27 1.40258 
r36 22 34 0.0492771 
r37 21 33 0.0529694 
r38 22 20 0.366809 
r39 21 20 0.483404 
.ends

.subckt PM_PC3D21EU%VSSO 167 330 493 560 566 592 598 891 895 902 933 940 952
+ 965 967 975 981 985 992 998 1006 1014 1026 1069 1073 1079 1085
c0 1085 0 31.9601f
c1 1072 0 3.67459f
c2 1069 0 19.6992f
c3 1061 0 7.9254f
c4 1059 0 6.98451f
c5 1053 0 6.98479f
c6 1048 0 6.98459f
c7 1042 0 6.98454f
c8 1037 0 6.98449f
c9 1026 0 0.00199794f
c10 1021 0 8.95235f
c11 1014 0 0.319472f
c12 1006 0 0.995986f
c13 998 0 0.95475f
c14 985 0 1.39174f
c15 981 0 1.38423f
c16 970 0 1.9723f
c17 967 0 0.00104253f
c18 965 0 8.25608e-19
c19 963 0 8.96457f
c20 950 0 7.84939f
c21 946 0 1.27875f
c22 936 0 1.65715f
c23 933 0 58.2607f
c24 910 0 5.36999f
c25 898 0 1.26508f
c26 895 0 10.6369f
c27 888 0 0.174831f
c28 886 0 0.191221f
c29 878 0 2.21297f
c30 868 0 9.70903f
c31 867 0 2.54739f
c32 865 0 0.0574344f
c33 864 0 0.212005f
c34 862 0 0.086847f
c35 860 0 1.27491f
c36 859 0 0.0220246f
c37 856 0 0.107983f
c38 855 0 0.0484324f
c39 854 0 1.51338f
c40 852 0 0.0677584f
c41 851 0 0.293963f
c42 849 0 10.7938f
c43 848 0 0.83709f
c44 845 0 2.24828f
c45 841 0 0.948476f
c46 835 0 0.708327f
c47 833 0 3.24324f
c48 831 0 0.383003f
c49 830 0 0.713156f
c50 829 0 0.292604f
c51 828 0 3.25968f
c52 827 0 0.383249f
c53 826 0 0.0689962f
c54 825 0 0.351569f
c55 792 0 0.122915f
c56 791 0 8.65602f
c57 761 0 0.269574f
c58 757 0 7.03694f
c59 755 0 0.146306f
c60 603 0 0.342309f
c61 598 0 0.00373164f
c62 592 0 0.378094f
c63 585 0 3.13427f
c64 583 0 0.618586f
c65 581 0 0.0956278f
c66 579 0 0.221339f
c67 577 0 0.237144f
c68 572 0 0.0142283f
c69 566 0 1.57837f
c70 560 0 0.319454f
c71 408 0 14.0429f
c72 358 0 14.0429f
c73 245 0 14.0429f
c74 195 0 14.0429f
c75 32 0 14.0429f
c76 10 0 0.146306f
r77 1083 1085 0.00282778 
r78 1082 1083 0.355444 
r79 1079 1082 0.00283333 
r80 1075 1076 0.0111317 
r81 1072 1075 0.0090538 
r82 1072 1073 0.02 
r83 1066 1067 0.122246 
r84 1065 1066 0.0327273 
r85 1030 1031 0.0140639 
r86 1025 1026 0.0126606 
r87 1061 1023 0.0113761 
r88 1021 1023 0.0638298 
r89 1018 1067 2 
r90 1014 1018 0.000761905 
r91 1011 1066 0.6 
r92 1006 1011 0.46 
r93 1003 1065 0.6 
r94 998 1003 0.46 
r95 965 1025 0.013211 
r96 1021 965 0.000917431 
r97 963 965 0.000913242 
r98 963 1030 0.0638298 
r99 951 952 0.02 
r100 950 1030 0.0113242 
r101 948 950 0.0327869 
r102 948 951 0.0178092 
r103 946 948 0.029258 
r104 943 1083 0.357143 
r105 940 943 0.21 
r106 938 1069 0.00544385 
r107 1067 938 0.0327273 
r108 936 938 1 
r109 936 940 0.445 
r110 931 933 0.00612761 
r111 931 1061 0.0327869 
r112 1055 929 0.00301483 
r113 929 1059 0.00301741 
r114 927 929 0.0266667 
r115 927 931 0.0287785 
r116 992 926 0.130435 
r117 926 1053 0.00301741 
r118 1050 926 0.00301741 
r119 924 926 0.0266667 
r120 924 927 0.0242129 
r121 1044 923 0.00301483 
r122 923 1048 0.00301741 
r123 921 923 0.0266667 
r124 921 924 0.0242129 
r125 920 921 0.000615582 
r126 975 919 0.130435 
r127 919 1042 0.00301741 
r128 1039 919 0.00301741 
r129 917 919 0.0266667 
r130 917 920 0.0235973 
r131 1033 916 0.00301483 
r132 916 1037 0.00301741 
r133 914 916 0.0266667 
r134 914 917 0.0242129 
r135 913 946 0.02 
r136 913 914 0.0277012 
r137 910 1076 0.6 
r138 951 908 0.428315 
r139 908 910 2.21804 
r140 905 1082 0.357143 
r141 902 905 0.21 
r142 900 1078 0.148897 
r143 1076 900 0.0151391 
r144 898 900 1 
r145 898 902 0.445 
r146 887 1065 0.12492 
r147 887 888 0.00169958 
r148 877 888 0.0880724 
r149 877 878 4.02 
r150 985 875 0.445 
r151 873 875 0.75 
r152 873 876 0.0792513 
r153 981 872 0.365 
r154 870 872 0.6 
r155 870 873 0.0219251 
r156 869 886 0.00185772 
r157 869 870 0.0203209 
r158 868 888 0.00169958 
r159 868 876 0.0168984 
r160 866 886 0.0857909 
r161 866 867 3.63314 
r162 864 867 0.0448303 
r163 864 865 0.199481 
r164 861 865 0.0447008 
r165 861 862 0.0831579 
r166 859 860 0.109474 
r167 855 856 0.135 
r168 854 855 0.0448391 
r169 853 854 2.75862 
r170 851 853 0.044715 
r171 851 852 0.466667 
r172 850 1075 0.02 
r173 849 886 0.00185772 
r174 849 850 0.173904 
r175 848 852 0.0450432 
r176 1078 848 1.29371 
r177 845 970 6 
r178 859 841 0.0429996 
r179 841 845 0.24 
r180 837 1026 0.230275 
r181 835 1021 0.210275 
r182 834 970 3.78429 
r183 832 967 0.229041 
r184 832 833 0.0863581 
r185 830 963 0.209132 
r186 830 831 0.0863581 
r187 837 828 0.0861375 
r188 828 829 0.132033 
r189 835 827 0.0861375 
r190 825 834 0.0446983 
r191 825 826 0.542857 
r192 822 826 0.0449572 
r193 792 965 0.128 
r194 791 829 0.0473573 
r195 791 965 0.126 
r196 761 792 0.0473573 
r197 833 761 0.132033 
r198 757 965 0.126 
r199 756 965 0.128 
r200 755 756 0.0473573 
r201 755 831 0.250407 
r202 585 598 4.92 
r203 878 585 6 
r204 876 583 0.75 
r205 581 603 0.04 
r206 862 581 3 
r207 592 579 0.0610526 
r208 860 579 2 
r209 822 577 0.2775 
r210 856 577 6 
r211 572 583 0.437895 
r212 572 573 0.0407126 
r213 573 566 2.31765 
r214 603 560 0.228267 
r215 507 895 0.0419737 
r216 891 507 0.0413851 
r217 920 507 0.00128205 
r218 929 493 0.130435 
r219 992 408 0.00313778 
r220 1053 408 0.0652174 
r221 493 398 0.0031351 
r222 1055 398 0.0652174 
r223 358 493 0.00314046 
r224 1059 358 0.0652174 
r225 1023 347 0.0141284 
r226 347 1025 0.0652174 
r227 923 330 0.130435 
r228 975 245 0.00313778 
r229 1042 245 0.0652174 
r230 330 235 0.0031351 
r231 1044 235 0.0652174 
r232 195 330 0.00314046 
r233 1048 195 0.0652174 
r234 185 992 0.00313778 
r235 1050 185 0.0652174 
r236 916 167 0.130435 
r237 82 967 0.0126027 
r238 965 82 0.0131507 
r239 1031 82 0.0652174 
r240 167 72 0.0031351 
r241 1033 72 0.0652174 
r242 32 167 0.00314046 
r243 1037 32 0.0652174 
r244 22 975 0.00313778 
r245 1039 22 0.0652174 
r246 10 827 0.250407 
r247 10 757 0.0473573 
.ends

.subckt PM_PC3D21EU%U17_U1_nsgate 15 50 57
c0 70 0 0.351499f
c1 68 0 0.137872f
c2 65 0 13.343f
c3 57 0 1.7503f
c4 50 0 0.837838f
c5 41 0 0.224487f
c6 39 0 6.16442f
c7 31 0 0.789695f
c8 21 0 0.0373951f
c9 20 0 0.91191f
c10 17 0 0.142388f
c11 15 0 0.347269f
c12 2 0 0.0337092f
r13 75 70 0.4 
r14 68 70 6 
r15 62 65 0.592 
r16 44 75 6 
r17 65 41 6 
r18 39 41 6 
r19 39 44 7.34897 
r20 36 62 6 
r21 57 33 1.93143 
r22 31 33 6 
r23 31 36 0.991429 
r24 27 68 0.0385714 
r25 26 57 1.60286 
r26 20 26 0.0446983 
r27 20 21 1.85 
r28 16 21 0.0446983 
r29 16 17 0.101429 
r30 27 15 0.0119838 
r31 2 50 85 
r32 1 17 1.28571 
r33 1 2 3.06965 
.ends

.subckt PM_PC3D21EU%RENB 51 68 74 77 108 130
c0 129 0 0.0635058f
c1 123 0 8.0781f
c2 117 0 0.283344f
c3 108 0 0.0130833f
c4 105 0 0.867734f
c5 102 0 15.7416f
c6 93 0 0.508484f
c7 77 0 0.26814f
c8 74 0 0.590868f
c9 68 0 0.859339f
c10 59 0 0.18472f
c11 55 0 0.215907f
c12 53 0 5.89394f
c13 48 0 0.140566f
c14 46 0 0.10518f
c15 37 0 1.39984f
c16 29 0 1.72181f
c17 28 0 0.0523353f
c18 27 0 4.18207f
r19 114 117 0.0455556 
r20 105 108 0.275714 
r21 100 102 0.821333 
r22 98 100 1.45733 
r23 117 91 3.9399 
r24 91 77 44.7 
r25 70 105 3.6393 
r26 70 74 51.6667 
r27 64 93 3.31073 
r28 64 68 85 
r29 61 123 6 
r30 114 59 6 
r31 57 59 6 
r32 57 61 4.77614 
r33 102 55 6 
r34 53 55 6 
r35 53 57 5.61825 
r36 48 130 0.0207123 
r37 48 129 0.0524876 
r38 46 48 6 
r39 46 51 0.0207123 
r40 45 123 13.7257 
r41 42 100 6 
r42 108 39 0.767143 
r43 37 39 6 
r44 37 42 2.34 
r45 34 98 6 
r46 93 31 0.35875 
r47 29 31 6 
r48 29 34 1.98667 
r49 27 45 0.0446983 
r50 27 28 7.82714 
r51 25 28 0.0446983 
r52 25 129 0.134286 
.ends

.subckt PM_PC3D21EU%VSS 826 883 906 934 943 951 963 966 972
c0 972 0 86.6354f
c1 963 0 48.9845f
c2 950 0 13.5832f
c3 948 0 2.37813f
c4 943 0 0.00235168f
c5 940 0 0.63546f
c6 934 0 0.00116039f
c7 931 0 1.09732f
c8 921 0 2.48769f
c9 915 0 16.9909f
c10 914 0 1.92886f
c11 903 0 1.88728f
c12 895 0 15.207f
c13 880 0 1.45587f
c14 862 0 0.238357f
c15 850 0 25.4006f
c16 840 0 0.0872741f
c17 839 0 0.0657389f
c18 838 0 6.05168f
c19 837 0 0.46413f
c20 836 0 0.854629f
c21 835 0 0.0389222f
c22 826 0 2.00202f
c23 823 0 7.79396f
c24 821 0 0.201001f
c25 820 0 0.523847f
c26 812 0 8.70234f
c27 810 0 0.255493f
c28 809 0 0.0916283f
c29 808 0 1.69628f
c30 700 0 2.36756f
c31 689 0 0.448278f
c32 687 0 0.227152f
c33 685 0 0.27476f
c34 682 0 24.3784f
c35 679 0 2.5301f
c36 675 0 1.17338f
c37 674 0 0.183422f
c38 669 0 2.17087f
c39 666 0 1.6059f
c40 663 0 0.135881f
c41 662 0 2.47517f
c42 661 0 0.119796f
c43 660 0 0.358397f
c44 659 0 2.11637f
c45 655 0 6.52093f
c46 572 0 0.162892f
c47 570 0 0.72248f
c48 568 0 0.203897f
c49 543 0 2.94311f
c50 529 0 3.06384f
c51 527 0 0.031054f
c52 524 0 6.76635f
c53 523 0 0.20222f
c54 508 0 5.70364f
c55 505 0 3.25515f
r56 970 972 0.000702051 
r57 969 970 0.0832563 
r58 966 969 0.000703354 
r59 962 963 0.00318245 
r60 959 960 0.0386441 
r61 958 959 0.0645663 
r62 957 958 0.112383 
r63 956 957 0.133121 
r64 955 956 0.00103689 
r65 948 962 0.461538 
r66 940 943 0.76 
r67 940 960 3 
r68 931 934 1.5675 
r69 931 958 1.5 
r70 928 957 0.0517241 
r71 921 955 0.6 
r72 919 950 0.0297924 
r73 919 921 3.23529 
r74 914 950 0.0158586 
r75 914 915 1.016 
r76 910 962 0.00119641 
r77 960 910 0.0716251 
r78 908 910 0.428571 
r79 906 908 0.189 
r80 903 906 0.013 
r81 903 970 0.131579 
r82 899 900 1.13584 
r83 898 899 0.55797 
r84 895 898 0.628223 
r85 895 959 0.3 
r86 891 892 0.8237 
r87 887 955 0.0882951 
r88 951 887 0.00438684 
r89 885 887 0.428571 
r90 883 885 0.189 
r91 880 883 0.013 
r92 880 969 0.131579 
r93 849 876 0.020015 
r94 849 850 0.9662 
r95 838 928 2.8545 
r96 838 839 0.0338756 
r97 835 928 2.764 
r98 834 840 0.0338756 
r99 833 839 0.0338756 
r100 830 840 0.00880368 
r101 829 839 0.00880368 
r102 826 870 2.59036 
r103 830 826 0.88 
r104 829 826 1.064 
r105 825 862 3 
r106 825 826 1.749 
r107 824 950 0.0158586 
r108 824 825 0.2485 
r109 823 840 0.0338756 
r110 821 836 0.0577061 
r111 820 837 0.0577061 
r112 818 835 0.0446983 
r113 816 948 1.518 
r114 815 948 0.426 
r115 812 870 1.08482 
r116 809 915 0.049 
r117 808 809 0.0446983 
r118 808 818 1.944 
r119 823 694 0.5695 
r120 826 694 1.9525 
r121 694 872 3 
r122 692 826 1.07566 
r123 810 692 1.06313 
r124 692 878 1 
r125 700 689 2 
r126 899 689 2 
r127 872 687 0.000888889 
r128 898 687 3 
r129 685 870 3 
r130 900 685 3 
r131 682 891 0.3029 
r132 682 956 0.125 
r133 681 862 0.0005 
r134 891 681 3 
r135 679 878 0.00730548 
r136 876 679 0.056042 
r137 892 679 0.24 
r138 820 677 0.0430189 
r139 821 677 0.078239 
r140 850 677 1 
r141 675 834 0.6415 
r142 816 675 0.0446983 
r143 673 700 0.299289 
r144 673 674 0.0100156 
r145 668 669 1.4181 
r146 667 674 0.065217 
r147 666 668 0.0447067 
r148 666 667 1.0122 
r149 663 664 0.678222 
r150 662 669 0.0447675 
r151 662 664 0.650667 
r152 660 674 0.065217 
r153 660 661 0.254146 
r154 659 663 0.0448242 
r155 658 661 0.0446983 
r156 658 659 1.45268 
r157 655 833 0.6415 
r158 655 815 0.0446983 
r159 571 572 0.147619 
r160 567 568 0.14988 
r161 812 567 0.0380723 
r162 564 566 0.143333 
r163 810 563 0.0385542 
r164 561 563 0.14506 
r165 826 560 0.159 
r166 543 826 0.159 
r167 542 572 0.02 
r168 542 560 1.247 
r169 541 568 0.02 
r170 541 543 1.243 
r171 826 540 0.192 
r172 538 826 0.192 
r173 537 538 0.342 
r174 826 537 0.192 
r175 535 826 0.192 
r176 534 535 0.342 
r177 826 534 0.192 
r178 532 826 0.192 
r179 531 532 0.342 
r180 826 531 0.192 
r181 529 826 0.192 
r182 528 571 0.02 
r183 528 540 1.214 
r184 527 570 0.04 
r185 527 529 0.243 
r186 525 567 0.02 
r187 525 570 0.938734 
r188 524 837 4.80524 
r189 524 571 0.0380952 
r190 523 836 0.558571 
r191 523 566 0.0380952 
r192 826 519 0.159 
r193 517 826 0.159 
r194 516 517 0.408 
r195 826 516 0.159 
r196 514 826 0.159 
r197 513 514 0.408 
r198 826 513 0.159 
r199 511 826 0.159 
r200 510 511 0.408 
r201 826 510 0.159 
r202 508 826 0.159 
r203 507 566 0.02 
r204 507 519 1.247 
r205 506 563 0.02 
r206 506 508 1.243 
r207 505 564 0.02 
r208 504 561 0.02 
r209 504 505 4.69271 
.ends

.subckt PM_PC3D21EU%VDD 17 22 50 52 58 68 88 94 97 103
c0 103 0 97.7227f
c1 94 0 58.592f
c2 86 0 6.83853f
c3 68 0 3.01081f
c4 58 0 1.91595f
c5 57 0 0.0303281f
c6 52 0 0.903492f
c7 49 0 1.29263f
c8 22 0 0.0667938f
c9 17 0 0.039634f
c10 14 0 0.119767f
c11 13 0 0.29028f
r12 101 103 0.00069414 
r13 100 101 0.0823181 
r14 97 100 0.000695428 
r15 84 86 0.566 
r16 84 92 0.315789 
r17 82 84 0.117 
r18 81 82 0.236 
r19 79 81 0.25 
r20 76 94 0.00414572 
r21 92 76 0.0681239 
r22 74 76 0.6 
r23 72 74 0.141 
r24 72 101 0.0925926 
r25 68 72 0.062 
r26 66 92 0.397158 
r27 88 66 0.00415301 
r28 64 66 0.6 
r29 62 64 0.141 
r30 62 100 0.0925926 
r31 58 62 0.062 
r32 56 57 0.0149881 
r33 51 57 0.0313149 
r34 51 52 1.59 
r35 49 57 0.0149881 
r36 49 50 0.349 
r37 47 86 0.02 
r38 46 82 0.02 
r39 45 81 0.02 
r40 43 79 0.02 
r41 47 27 1.084 
r42 46 22 1.345 
r43 45 17 1.345 
r44 14 50 0.558 
r45 13 56 0.15 
r46 13 27 0.0446983 
r47 12 14 0.0446983 
r48 43 12 1.084 
.ends

.subckt PM_PC3D21EU%U14_MN4$11_gate 98 103 219 224 340 345 410 415 420 425 430
+ 435 449
c0 590 0 0.278604f
c1 586 0 0.441093f
c2 581 0 0.438378f
c3 576 0 0.440485f
c4 571 0 0.440923f
c5 566 0 0.441263f
c6 554 0 2.54357f
c7 550 0 0.211286f
c8 536 0 0.217018f
c9 535 0 0.233712f
c10 534 0 0.220914f
c11 533 0 0.218131f
c12 532 0 0.215905f
c13 531 0 0.531717f
c14 527 0 1.34551f
c15 526 0 0.759073f
c16 522 0 1.18506f
c17 521 0 0.798345f
c18 517 0 1.20039f
c19 516 0 0.768529f
c20 512 0 1.20845f
c21 511 0 0.76175f
c22 507 0 1.21329f
c23 506 0 0.756441f
c24 503 0 0.151993f
c25 502 0 1.19877f
c26 497 0 0.26447f
c27 495 0 8.89626f
c28 492 0 15.7041f
c29 487 0 1.65531f
c30 485 0 0.126896f
c31 480 0 0.113594f
c32 474 0 0.694983f
c33 473 0 0.0631592f
c34 464 0 0.535331f
c35 456 0 0.536045f
c36 450 0 0.301246f
c37 449 0 0.233998f
c38 442 0 0.169431f
c39 441 0 0.61524f
c40 440 0 0.171647f
c41 439 0 0.61532f
c42 438 0 0.17165f
c43 437 0 0.539578f
c44 435 0 3.10111f
c45 430 0 3.04442f
c46 425 0 3.0445f
c47 420 0 3.04448f
c48 415 0 3.04448f
c49 410 0 3.10225f
c50 357 0 0.97977f
c51 345 0 3.04448f
c52 344 0 0.17165f
c53 340 0 3.04451f
c54 339 0 0.171656f
c55 236 0 0.982962f
c56 224 0 3.04451f
c57 223 0 0.172645f
c58 219 0 3.04448f
c59 218 0 0.172618f
c60 115 0 0.979825f
c61 103 0 3.04449f
c62 102 0 0.171638f
c63 98 0 3.04453f
c64 97 0 0.171673f
r65 548 550 6 
r66 530 590 0.00341463 
r67 529 531 0.14805 
r68 529 530 3 
r69 528 536 0.0976683 
r70 527 531 0.0587213 
r71 527 528 1.488 
r72 526 536 0.020978 
r73 525 586 0.00292683 
r74 583 525 0.0526829 
r75 524 526 0.0840461 
r76 524 525 1.5 
r77 523 535 0.101262 
r78 522 536 0.0976683 
r79 522 523 1.469 
r80 521 535 0.0218691 
r81 520 581 0.00195122 
r82 578 520 0.0536585 
r83 519 521 0.077357 
r84 519 520 1.5 
r85 518 534 0.0985288 
r86 517 535 0.101262 
r87 517 518 1.488 
r88 516 534 0.0211962 
r89 515 576 0.000487805 
r90 573 515 0.055122 
r91 514 516 0.0816253 
r92 514 515 1.5 
r93 513 533 0.0979155 
r94 512 534 0.0985288 
r95 512 513 1.498 
r96 511 533 0.0210411 
r97 510 571 0.00292683 
r98 568 510 0.0526829 
r99 509 511 0.082618 
r100 509 510 1.5 
r101 508 532 0.0974198 
r102 507 533 0.0979155 
r103 507 508 1.504 
r104 506 532 0.0209145 
r105 505 566 0.00536585 
r106 563 505 0.0502439 
r107 504 506 0.0834295 
r108 504 505 1.5 
r109 502 532 0.0974198 
r110 502 503 1.486 
r111 499 550 6 
r112 559 497 0.0521951 
r113 495 497 3 
r114 495 499 2.49172 
r115 494 503 0.0601423 
r116 494 495 0.146897 
r117 548 492 15.6586 
r118 490 492 6 
r119 487 490 1.388 
r120 487 554 6 
r121 484 554 3.376 
r122 480 485 0.0933197 
r123 473 484 0.0447517 
r124 485 473 0.157176 
r125 480 449 0.0666667 
r126 442 474 1.85294 
r127 441 464 5.05882 
r128 440 464 5.05882 
r129 439 456 5.05882 
r130 438 456 5.05882 
r131 437 450 1.85294 
r132 432 442 3.88985 
r133 432 435 183.96 
r134 427 441 3.88985 
r135 427 430 183.96 
r136 422 440 3.88985 
r137 422 425 183.96 
r138 417 439 3.88985 
r139 417 420 183.96 
r140 412 438 3.88985 
r141 412 415 183.96 
r142 407 437 3.88985 
r143 407 410 183.96 
r144 350 357 5.05882 
r145 349 357 5.05882 
r146 344 350 3.88985 
r147 344 345 183.96 
r148 339 349 3.88985 
r149 339 340 183.96 
r150 464 298 0.00142683 
r151 581 298 3 
r152 357 287 0.00133393 
r153 583 287 3 
r154 262 357 0.0278113 
r155 586 262 3 
r156 474 251 0.00142683 
r157 590 251 3 
r158 229 236 5.05882 
r159 228 236 5.05882 
r160 223 229 3.88985 
r161 223 224 183.96 
r162 218 228 3.88985 
r163 218 219 183.96 
r164 456 177 0.00142683 
r165 571 177 3 
r166 236 166 0.00133393 
r167 573 166 3 
r168 141 236 0.0278113 
r169 576 141 3 
r170 464 130 0.0277856 
r171 578 130 3 
r172 108 115 5.05882 
r173 107 115 5.05882 
r174 102 108 3.88985 
r175 102 103 183.96 
r176 97 107 3.88985 
r177 97 98 183.96 
r178 450 56 0.00142683 
r179 559 56 3 
r180 115 45 0.00133393 
r181 563 45 3 
r182 20 115 0.0278113 
r183 566 20 3 
r184 456 9 0.0277856 
r185 568 9 3 
.ends

.subckt PM_PC3D21EU%CIN 14 23 45 57 115 150
c0 147 0 0.140532f
c1 145 0 7.97335f
c2 135 0 15.7524f
c3 126 0 4.21592f
c4 120 0 0.247052f
c5 118 0 7.30882f
c6 112 0 0.101606f
c7 104 0 1.70857f
c8 98 0 1.51513f
c9 97 0 0.0379464f
c10 96 0 4.41096f
c11 95 0 3.22851f
c12 93 0 0.112108f
c13 87 0 0.0711412f
c14 86 0 0.0341935f
c15 82 0 1.37568f
c16 79 0 0.0314839f
c17 78 0 1.43516f
c18 74 0 7.81734f
c19 68 0 0.246801f
c20 57 0 0.0400527f
c21 45 0 1.09466f
c22 39 0 1.17474f
c23 38 0 2.00522f
c24 34 0 1.38029f
c25 28 0 0.0333372f
c26 23 0 0.860339f
c27 20 0 0.398866f
c28 19 0 0.055314f
c29 18 0 0.352013f
c30 14 0 1.04113f
r31 147 150 0.0207123 
r32 147 148 0.0524876 
r33 133 135 3.34857 
r34 132 133 0.468571 
r35 130 132 11.5829 
r36 123 145 6 
r37 135 120 6 
r38 118 120 6 
r39 118 123 10.7371 
r40 112 115 0.0207123 
r41 112 147 6 
r42 110 145 11.4788 
r43 96 110 0.04509 
r44 96 97 7.86286 
r45 138 95 4.60286 
r46 93 95 6 
r47 148 93 0.297143 
r48 91 97 0.0446983 
r49 91 93 0.0457143 
r50 89 138 6 
r51 87 89 0.00857143 
r52 85 87 0.0446983 
r53 85 86 0.114286 
r54 82 130 6 
r55 80 82 2.17429 
r56 78 86 0.0446983 
r57 78 79 3.06 
r58 126 76 7.37143 
r59 74 76 6 
r60 73 79 0.0446983 
r61 73 74 14.96 
r62 70 126 6 
r63 68 80 0.0446983 
r64 68 70 0.3 
r65 39 108 2.29429 
r66 39 133 6 
r67 38 53 4.03143 
r68 108 38 6 