* File: pt3b03u.dist.sp.pex
* Created: Sun Jul  4 13:01:49 2010
* Program "Calibre xRC"
* Version "v2008.4_19.14"
* Nominal Temperature: 27C
* Circuit Temperature: 27C
* 
.subckt PM_PT3B03U%PAD 21 50 79 108 137 166 218 242 266 290 320 326 389 428 452
+ 459
c0 467 0 29.5122f
c1 460 0 83.0515f
c2 459 0 64.3341f
c3 456 0 159.215f
c4 451 0 1.02644f
c5 444 0 9.95412f
c6 434 0 13.8424f
c7 425 0 0.117887f
c8 423 0 214.416f
c9 408 0 15.3329f
c10 397 0 46.9231f
c11 392 0 65.4578f
c12 390 0 15.8906f
c13 389 0 1.04872f
c14 388 0 3.88292f
c15 326 0 13.4242f
c16 320 0 13.423f
c17 290 0 13.4134f
c18 266 0 13.4219f
c19 242 0 13.6954f
c20 218 0 13.4098f
c21 176 0 7.52869f
c22 166 0 2.98552f
c23 149 0 6.78371f
c24 137 0 2.98621f
c25 120 0 6.78371f
c26 108 0 2.98621f
c27 91 0 6.78371f
c28 79 0 2.98621f
c29 62 0 6.78371f
c30 50 0 2.9855f
c31 33 0 6.78371f
c32 21 0 2.98537f
c33 4 0 6.78371f
r34 467 468 0.118407 
r35 466 467 0.118407 
r36 465 466 0.056883 
r37 464 465 0.061524 
r38 463 464 0.118407 
r39 462 463 0.0830354 
r40 461 462 0.0353716 
r41 459 460 0.0124825 
r42 457 459 0.000593149 
r43 456 457 0.0669731 
r44 451 452 0.00916 
r45 444 462 0.0545455 
r46 434 465 0.015 
r47 425 428 0.00916 
r48 425 451 2 
r49 423 434 0.0264274 
r50 421 423 0.147454 
r51 421 422 0.0288462 
r52 415 416 0.00752787 
r53 414 415 0.021023 
r54 412 414 0.000537705 
r55 412 456 0.00162999 
r56 410 412 0.000537705 
r57 408 410 0.0285508 
r58 399 451 0.1388 
r59 398 399 0.132996 
r60 397 398 0.0171733 
r61 394 395 0.0171733 
r62 393 394 0.0171733 
r63 392 393 0.0171733 
r64 391 397 0.0142401 
r65 391 395 0.00293318 
r66 390 422 0.00646891 
r67 390 392 0.00818451 
r68 388 444 0.202116 
r69 388 389 0.0147368 
r70 315 320 0.0072093 
r71 392 315 0.0566038 
r72 313 326 0.0072093 
r73 398 313 0.0566038 
r74 286 290 0.0072093 
r75 397 286 0.0566038 
r76 262 266 0.0072093 
r77 395 262 0.0566038 
r78 238 242 0.0072093 
r79 394 238 0.0566038 
r80 214 218 0.0072093 
r81 393 214 0.0566038 
r82 194 197 0.0022831 
r83 416 194 0.0375475 
r84 194 457 0.00547945 
r85 414 193 0.00210084 
r86 191 193 0.000537705 
r87 410 191 0.00210084 
r88 193 182 0.0105115 
r89 415 182 0.00712251 
r90 178 197 0.0187738 
r91 182 178 0.00376393 
r92 416 178 0.00712251 
r93 176 191 0.0142754 
r94 408 176 0.00356125 
r95 460 173 0.345778 
r96 172 468 0.0220132 
r97 172 173 0.319822 
r98 166 153 0.00249413 
r99 173 153 0.0425532 
r100 149 166 0.00249413 
r101 173 149 0.0425532 
r102 460 144 0.345778 
r103 143 467 0.0220132 
r104 143 144 0.319822 
r105 137 124 0.00249413 
r106 144 124 0.0425532 
r107 120 137 0.00249413 
r108 144 120 0.0425532 
r109 460 115 0.345778 
r110 114 466 0.0220132 
r111 114 115 0.319822 
r112 108 95 0.00249413 
r113 115 95 0.0425532 
r114 91 108 0.00249413 
r115 115 91 0.0425532 
r116 460 86 0.345778 
r117 85 464 0.0220132 
r118 85 86 0.319822 
r119 79 66 0.00249413 
r120 86 66 0.0425532 
r121 62 79 0.00249413 
r122 86 62 0.0425532 
r123 460 57 0.345778 
r124 56 463 0.0220132 
r125 56 57 0.319822 
r126 50 37 0.00249413 
r127 57 37 0.0425532 
r128 33 50 0.00249413 
r129 57 33 0.0425532 
r130 460 28 0.345778 
r131 27 461 0.0220132 
r132 27 28 0.319822 
r133 21 8 0.00249413 
r134 28 8 0.0425532 
r135 4 21 0.00249413 
r136 28 4 0.0425532 
.ends

.subckt PM_PT3B03U%noxref_2 8 18
c0 20 0 4.82222f
c1 18 0 0.98902f
c2 8 0 6.70705f
r3 18 20 0.158105 
r4 20 8 0.158526 
.ends

.subckt PM_PT3B03U%net_m20_VSSO_res 21 102 106 110 114 118
c0 118 0 0.519409f
c1 114 0 0.519409f
c2 110 0 0.519409f
c3 106 0 0.721524f
c4 102 0 0.73297f
c5 98 0 0.864037f
c6 92 0 0.0518462f
c7 58 0 0.0631005f
c8 48 0 0.242979f
c9 47 0 0.19588f
c10 46 0 0.135544f
c11 45 0 0.10058f
c12 44 0 0.162435f
c13 28 0 0.561629f
c14 26 0 0.0477785f
c15 25 0 0.371634f
r16 93 98 0.0552941 
r17 92 93 0.02 
r18 91 92 0.124706 
r19 59 102 85 
r20 57 118 85 
r21 57 58 0.93595 
r22 56 114 85 
r23 55 56 1.5553 
r24 54 98 2.20253 
r25 53 55 6.2212 
r26 53 54 1.5553 
r27 52 110 85 
r28 51 53 10.0922 
r29 51 52 1.5553 
r30 50 106 85 
r31 49 58 2.23066 
r32 48 59 3.37824 
r33 48 49 10.8571 
r34 47 55 4.70046 
r35 46 58 2.23066 
r36 46 47 9 
r37 45 50 3.37824 
r38 44 51 2.90323 
r39 44 45 10.8571 
r40 27 28 0.18 
r41 91 26 0.0446983 
r42 25 27 0.0446983 
r43 25 26 0.521176 
r44 28 21 5.56667 
.ends

.subckt PM_PT3B03U%U29_padr 40 46 54 116 118 120 161 168
c0 248 0 16.1976f
c1 242 0 9.31824f
c2 235 0 0.856037f
c3 231 0 15.9858f
c4 217 0 0.145078f
c5 216 0 0.0372956f
c6 215 0 0.0478417f
c7 214 0 0.0873247f
c8 211 0 6.60978f
c9 208 0 0.611623f
c10 206 0 5.63632f
c11 204 0 0.516633f
c12 202 0 0.0693973f
c13 201 0 0.207306f
c14 200 0 0.411447f
c15 191 0 0.814269f
c16 186 0 1.73033f
c17 177 0 1.83121f
c18 170 0 0.306803f
c19 168 0 1.07645f
c20 167 0 0.703354f
c21 161 0 0.51526f
c22 142 0 0.093022f
c23 136 0 0.0843457f
c24 128 0 16.1246f
c25 120 0 1.09106f
c26 118 0 0.567391f
c27 116 0 1.02291f
c28 86 0 0.394633f
c29 83 0 0.386024f
c30 82 0 0.370735f
c31 80 0 0.40312f
c32 76 0 0.421448f
c33 73 0 0.438735f
c34 70 0 0.226943f
c35 69 0 0.0193661f
c36 68 0 0.0834583f
c37 66 0 0.0580109f
c38 65 0 0.0700572f
c39 64 0 0.0831665f
c40 60 0 0.30153f
c41 58 0 0.0331349f
c42 57 0 0.0954138f
c43 54 0 1.27015f
c44 51 0 0.068806f
c45 50 0 0.372865f
c46 46 0 2.39968f
c47 44 0 0.512434f
c48 40 0 2.3275f
r49 248 233 0.172857 
r50 231 233 6 
r51 227 229 3.984 
r52 217 219 3 
r53 216 217 0.109474 
r54 216 214 0.0456991 
r55 214 215 0.147143 
r56 211 248 2 
r57 209 215 0.0446983 
r58 209 211 10.3129 
r59 208 219 0.30381 
r60 242 206 0.185079 
r61 204 206 1.2 
r62 203 204 0.482857 
r63 201 203 0.0446983 
r64 201 202 0.125714 
r65 200 202 0.0446983 
r66 199 208 0.0446983 
r67 199 200 0.407619 
r68 196 235 6 
r69 193 231 2.53067 
r70 229 193 8.46267 
r71 191 193 6 
r72 191 196 1.32516 
r73 171 235 1.28774 
r74 170 171 0.123174 
r75 167 242 0.18836 
r76 167 168 0.0147368 
r77 162 170 0.0200258 
r78 162 161 0.0431111 
r79 127 128 0.434667 
r80 108 120 168.333 
r81 108 142 3.92502 
r82 103 118 51.6667 
r83 102 103 1.66667 
r84 95 116 168.333 
r85 136 95 3.6393 
r86 186 90 6 
r87 87 189 0.8025 
r88 186 87 2.8475 
r89 87 128 6 
r90 86 142 0.77 
r91 189 86 6 
r92 83 184 1.2525 
r93 83 229 6 
r94 82 136 0.7825 
r95 184 82 6 
r96 177 80 6 
r97 77 180 0.8 
r98 177 77 2.88 
r99 77 127 6 
r100 180 76 6 
r101 73 175 0.482667 
r102 73 227 6 
r103 72 127 3.75467 
r104 175 72 6 
r105 70 90 0.05 
r106 66 76 0.642857 
r107 65 80 0.642857 
r108 64 70 0.0446983 
r109 63 69 0.0338756 
r110 63 64 0.1875 
r111 60 102 1.16667 
r112 59 69 0.0338756 
r113 59 60 0.245 
r114 57 69 0.00880368 
r115 57 58 0.25 
r116 53 58 0.0446983 
r117 53 54 1.2575 
r118 52 54 1.3775 
r119 50 52 0.0447588 
r120 50 51 0.544 
r121 68 46 2.375 
r122 44 68 0.12 
r123 43 66 0.0449572 
r124 43 44 0.8475 
r125 39 65 0.0449572 
r126 39 40 1.4975 
r127 38 51 0.0447588 
r128 38 40 1.3775 
.ends

.subckt PM_PT3B03U%VDDO 762 769 776 783 790 797 804 817 863 869 873 928 959 964
+ 971 997 1055 1291 1362 1366 1369 1373 1381 1388 1409 1438 1448 1456 1463 1469
+ 1475 1481 1487 1493 1499 1505 1511 1562 1579 1608 1613
c0 1613 0 21.1744f
c1 1605 0 4.28415f
c2 1596 0 6.89048f
c3 1587 0 8.851f
c4 1582 0 5.90636f
c5 1579 0 52.7944f
c6 1558 0 3.00617f
c7 1524 0 9.62064f
c8 1511 0 1.39365f
c9 1505 0 2.72226f
c10 1499 0 2.65758f
c11 1493 0 1.37591f
c12 1487 0 1.72366f
c13 1481 0 2.07585f
c14 1475 0 0.814691f
c15 1469 0 1.88642f
c16 1463 0 2.46926f
c17 1460 0 5.46063f
c18 1445 0 0.505461f
c19 1441 0 30.9499f
c20 1440 0 1.93836f
c21 1438 0 65.2086f
c22 1436 0 1.61686f
c23 1387 0 52.4841f
c24 1377 0 0.69721f
c25 1376 0 1.41036f
c26 1373 0 3.00838f
c27 1366 0 2.51493f
c28 1354 0 0.132328f
c29 1344 0 0.331843f
c30 1340 0 0.211996f
c31 1334 0 0.234896f
c32 1324 0 0.619014f
c33 1320 0 0.305705f
c34 1316 0 0.616262f
c35 1314 0 0.184369f
c36 1309 0 2.04876f
c37 1303 0 1.62924f
c38 1298 0 2.42701f
c39 1291 0 0.698541f
c40 1255 0 9.76182f
c41 1075 0 0.340198f
c42 1073 0 3.49386f
c43 1059 0 11.8432f
c44 1055 0 0.0820252f
c45 1049 0 0.482554f
c46 1019 0 4.04218f
c47 1014 0 0.474075f
c48 1013 0 0.125713f
c49 1011 0 0.27892f
c50 1007 0 0.0321078f
c51 1005 0 8.46005f
c52 1004 0 3.36647f
c53 999 0 0.911179f
c54 996 0 0.0193183f
c55 994 0 0.0208492f
c56 993 0 5.79674f
c57 991 0 0.20801f
c58 981 0 0.0969917f
c59 978 0 0.0596675f
c60 977 0 3.19619f
c61 976 0 1.09777f
c62 971 0 1.44047f
c63 968 0 0.451293f
c64 964 0 1.37719f
c65 948 0 0.335902f
c66 945 0 0.671339f
c67 939 0 0.0312283f
c68 938 0 0.967854f
c69 928 0 1.42069f
c70 817 0 7.64144f
c71 809 0 7.25718f
c72 797 0 0.00989968f
c73 790 0 0.00989968f
c74 783 0 0.00989968f
c75 776 0 0.00989968f
c76 769 0 0.0234213f
c77 762 0 0.00828265f
c78 729 0 12.0862f
c79 727 0 19.5973f
c80 725 0 19.7809f
c81 723 0 19.8068f
c82 721 0 19.7809f
c83 719 0 19.7804f
c84 717 0 11.8816f
c85 691 0 0.114944f
c86 690 0 7.03101f
c87 687 0 0.104443f
c88 686 0 6.31797f
c89 17 0 0.486838f
c90 16 0 6.73982f
c91 7 0 0.152029f
c92 6 0 6.75738f
r93 1608 1611 0.00394881 
r94 1605 1606 0.956244 
r95 1598 1599 0.279231 
r96 1596 1598 0.266538 
r97 1589 1590 0.273962 
r98 1587 1589 0.261509 
r99 1576 1577 0.311895 
r100 1575 1576 0.0205664 
r101 1574 1575 0.0205664 
r102 1573 1574 0.0186492 
r103 1572 1573 0.0440959 
r104 1571 1572 0.0124619 
r105 1570 1571 0.0360784 
r106 1569 1570 0.0354684 
r107 1568 1569 0.013159 
r108 1567 1568 0.0256209 
r109 1560 1579 0.00304139 
r110 1577 1560 0.00174292 
r111 1558 1560 0.461538 
r112 1517 1519 1.93032 
r113 1514 1576 0.6 
r114 1511 1514 0.4475 
r115 1508 1575 0.6 
r116 1505 1508 1.6625 
r117 1502 1574 0.6 
r118 1499 1502 1.6625 
r119 1496 1573 0.666667 
r120 1493 1496 0.365 
r121 1490 1572 0.545455 
r122 1487 1490 1.4825 
r123 1484 1571 0.545455 
r124 1481 1484 1.63 
r125 1478 1570 0.75 
r126 1475 1478 0.1575 
r127 1472 1569 0.75 
r128 1469 1472 1.1525 
r129 1466 1568 0.5 
r130 1463 1466 1.455 
r131 1562 1462 0.00305011 
r132 1460 1462 0.461538 
r133 1456 1605 0.2 
r134 1452 1613 0.0039415 
r135 1611 1452 0.467422 
r136 1450 1452 0.5 
r137 1448 1450 0.181 
r138 1445 1448 0.17 
r139 1445 1577 1.5 
r140 1442 1443 0.5433 
r141 1441 1442 0.2247 
r142 1440 1456 0.0528252 
r143 1440 1443 0.099 
r144 1606 1436 0.698216 
r145 1434 1436 0.2 
r146 1434 1438 0.0136564 
r147 1599 1433 0.279231 
r148 1433 1431 0.279231 
r149 1431 1429 0.279231 
r150 1429 1427 0.266538 
r151 1425 1427 1.5 
r152 1425 1429 1.5 
r153 1425 1431 1.5 
r154 1425 1433 1.5 
r155 1425 1434 0.0314855 
r156 1424 1425 0.0601494 
r157 1590 1423 0.273962 
r158 1423 1421 0.273962 
r159 1421 1419 0.273962 
r160 1419 1417 0.261509 
r161 1415 1417 1.5 
r162 1415 1419 1.5 
r163 1415 1421 1.5 
r164 1415 1423 1.5 
r165 1415 1424 0.0634357 
r166 1584 1414 0.000747664 
r167 1412 1414 0.2 
r168 1412 1415 0.0334274 
r169 1409 1412 0.01361 
r170 1403 1598 1.5 
r171 1403 1596 1.5 
r172 1403 1599 1.5 
r173 1401 1403 0.0694058 
r174 1395 1589 1.5 
r175 1395 1587 1.5 
r176 1395 1401 0.0805639 
r177 1395 1590 1.5 
r178 1391 1582 0.2 
r179 1391 1395 0.0404834 
r180 1388 1391 0.0165962 
r181 1387 1456 0.0245381 
r182 1387 1403 0.0330312 
r183 1384 1611 0.5 
r184 1381 1384 0.181 
r185 1379 1567 0.0183007 
r186 1462 1379 0.00174292 
r187 1377 1379 1.5 
r188 1377 1381 0.17 
r189 1376 1441 0.5293 
r190 1352 1354 0.12 
r191 1346 1349 3 
r192 1524 1346 0.0677429 
r193 1344 1346 3 
r194 1524 1336 0.1116 
r195 1555 1336 0.0028 
r196 1334 1336 6 
r197 1312 1314 6 
r198 1309 1312 3.19226 
r199 1309 1517 6 
r200 1305 1354 0.02 
r201 1302 1352 0.02 
r202 1302 1303 2.92286 
r203 1291 1290 0.114485 
r204 1290 1314 0.221935 
r205 1255 1555 0.2648 
r206 1254 1555 0.2664 
r207 1253 1555 0.2664 
r208 1068 1075 1 
r209 1065 1340 3 
r210 1062 1065 0.2885 
r211 1062 1320 2 
r212 1519 1059 1.03355 
r213 1059 1324 1.2 
r214 1054 1055 1.8985 
r215 1053 1054 0.7505 
r216 1334 1032 0.000149533 
r217 1376 1031 0.0555566 
r218 1031 1032 6 
r219 1030 1349 0.0444444 
r220 1344 1030 7.40741e-05 
r221 1376 1029 0.0279474 
r222 1029 1030 1.5 
r223 1320 1028 0.000233918 
r224 1442 1028 2 
r225 1324 1026 0.000114123 
r226 1441 1026 1.2 
r227 1075 1024 0.000100503 
r228 1443 1024 1 
r229 1340 1022 0.000299625 
r230 1442 1022 3 
r231 1316 1019 6 
r232 1316 1016 0.804286 
r233 1016 1519 6 
r234 1305 1014 0.787143 
r235 1014 1054 6 
r236 1013 1073 0.0561431 
r237 1303 1013 6 
r238 1298 1011 6 
r239 1298 1008 3.395 
r240 1008 1053 6 
r241 1007 1049 0.0484211 
r242 1567 1007 2 
r243 1005 1068 0.219259 
r244 1004 1065 0.0845 
r245 1003 1019 5.04429 
r246 997 999 0.605623 
r247 995 1062 1.917 
r248 995 996 0.0149881 
r249 993 1055 0.4775 
r250 993 994 0.013668 
r251 989 1011 0.175 
r252 988 991 0.1525 
r253 988 989 0.02 
r254 981 1053 0.563 
r255 980 1558 0.526 
r256 980 1005 0.0447005 
r257 979 1558 2.122 
r258 979 1004 0.0446983 
r259 977 1003 0.0446983 
r260 977 978 3.31857 
r261 997 976 0.584127 
r262 975 978 0.0446983 
r263 975 976 1.02286 
r264 970 996 0.0313149 
r265 970 971 1.51 
r266 969 994 0.013668 
r267 968 996 0.0149881 
r268 968 969 0.2995 
r269 963 994 0.0337919 
r270 963 964 1.64138 
r271 999 959 1.36714 
r272 945 948 0.81913 
r273 944 948 0.309565 
r274 938 944 0.0446983 
r275 938 939 2.21913 
r276 936 939 0.0447246 
r277 936 1073 4.4 
r278 927 991 0.02 
r279 927 928 1.3925 
r280 923 1460 2.122 
r281 923 981 0.0446983 
r282 948 873 5.56667 
r283 945 869 5.56667 
r284 863 1049 5.54444 
r285 820 817 0.159252 
r286 817 827 0.159252 
r287 809 817 0.159252 
r288 1584 758 0.2 
r289 817 758 0.0391734 
r290 741 817 0.0397569 
r291 731 820 0.0829907 
r292 817 731 0.0291589 
r293 1606 731 0.1 
r294 762 729 0.793846 
r295 1596 729 1.5 
r296 769 727 0.55145 
r297 1598 727 1.5 
r298 776 725 0.55145 
r299 1599 725 1.5 
r300 783 723 0.55145 
r301 1433 723 1.5 
r302 790 721 0.55145 
r303 1431 721 1.5 
r304 797 719 0.55145 
r305 1429 719 1.5 
r306 804 717 0.793846 
r307 1427 717 1.5 
r308 715 762 0.842637 
r309 1587 715 1.5 
r310 713 769 0.585344 
r311 1589 713 1.5 
r312 711 776 0.585344 
r313 1590 711 1.5 
r314 709 783 0.585344 
r315 1423 709 1.5 
r316 707 790 0.585344 
r317 1421 707 1.5 
r318 705 797 0.585344 
r319 1419 705 1.5 
r320 703 804 0.842637 
r321 1417 703 1.5 
r322 698 1584 1.79477 
r323 1582 698 0.000373832 
r324 698 741 0.2 
r325 697 827 0.73271 
r326 696 809 0.737944 
r327 695 817 0.73271 
r328 694 817 0.737944 
r329 691 695 0.0451326 
r330 691 817 2.504 
r331 690 697 0.0451326 
r332 690 817 2.44889 
r333 687 694 0.045921 
r334 687 817 2.687 
r335 686 696 0.045921 
r336 686 817 2.885 
r337 324 1373 0.0526456 
r338 1369 324 0.0552365 
r339 1424 324 0.00227273 
r340 322 1366 0.0620926 
r341 1362 322 0.0688218 
r342 1401 322 0.0025 
r343 17 1555 1.51848 
r344 16 1255 0.0447329 
r345 16 1555 1.51162 
r346 15 1346 0.0737243 
r347 15 17 0.0447329 
r348 1254 7 0.0447329 
r349 7 1555 1.51848 
r350 6 1253 0.0447329 
r351 6 1555 1.51162 
.ends

.subckt PM_PT3B03U%net_m71_VSSO_res 9 27
c0 28 0 1.50994f
c1 21 0 0.316587f
r2 27 28 4.221 
r3 28 21 0.0567742 
r4 21 9 5.56667 
.ends

.subckt PM_PT3B03U%VSS 587 773 804 826 851 856 869 871 876
c0 876 0 91.6322f
c1 869 0 56.2551f
c2 854 0 2.37405f
c3 851 0 0.00368951f
c4 848 0 1.24098f
c5 835 0 1.21671f
c6 822 0 1.88726f
c7 815 0 17.7258f
c8 801 0 1.45963f
c9 786 0 25.3209f
c10 784 0 0.0842555f
c11 783 0 0.0657505f
c12 782 0 7.76032f
c13 780 0 0.269279f
c14 777 0 0.0372194f
c15 773 0 4.21717f
c16 770 0 0.198007f
c17 768 0 0.849373f
c18 765 0 10.4128f
c19 758 0 8.7194f
c20 755 0 0.254823f
c21 754 0 0.100669f
c22 753 0 1.98808f
c23 629 0 2.25025f
c24 625 0 2.49195f
c25 620 0 1.90886f
c26 618 0 0.280687f
c27 616 0 0.276497f
c28 613 0 26.6343f
c29 607 0 0.816164f
c30 606 0 6.34069f
c31 600 0 2.03915f
c32 594 0 0.137389f
c33 593 0 2.49501f
c34 592 0 0.154374f
c35 591 0 2.27417f
c36 587 0 0.00279637f
c37 539 0 0.162892f
c38 537 0 0.72248f
c39 535 0 0.203897f
c40 510 0 2.94295f
c41 496 0 3.05881f
c42 494 0 0.031054f
c43 491 0 0.729043f
c44 490 0 7.74017f
c45 489 0 0.203811f
c46 474 0 5.70454f
c47 471 0 3.25483f
r48 871 874 0.000703354 
r49 867 869 0.00318245 
r50 866 867 0.00119641 
r51 865 866 0.0758524 
r52 864 865 0.0344168 
r53 863 864 0.167059 
r54 862 863 0.0871386 
r55 861 862 0.0414357 
r56 860 861 0.0141176 
r57 859 860 0.089651 
r58 856 859 0.00438684 
r59 854 867 0.461538 
r60 848 851 1.28857 
r61 848 865 1.5 
r62 842 863 0.0535714 
r63 840 861 1.5 
r64 840 842 1.612 
r65 835 838 0.045 
r66 835 862 0.666667 
r67 829 866 0.428571 
r68 826 829 0.189 
r69 824 876 0.000702051 
r70 874 824 0.0832563 
r71 822 824 0.131579 
r72 822 826 0.013 
r73 819 820 0.56934 
r74 818 819 1.12447 
r75 815 818 0.628223 
r76 815 864 0.3 
r77 807 859 0.428571 
r78 804 807 0.189 
r79 801 804 0.013 
r80 801 874 0.131579 
r81 782 842 2.8715 
r82 782 783 0.0338756 
r83 786 779 1 
r84 779 780 0.0155975 
r85 777 840 1.283 
r86 776 784 0.0338756 
r87 775 783 0.0338756 
r88 773 846 2.59036 
r89 844 773 1.07807 
r90 772 784 0.00880368 
r91 772 773 0.958 
r92 771 783 0.00880368 
r93 771 773 0.986 
r94 780 770 0.0632911 
r95 770 768 0.0574488 
r96 765 784 0.0338756 
r97 764 777 0.0448201 
r98 761 854 1.518 
r99 760 854 0.426 
r100 758 846 1.08482 
r101 755 844 1.06072 
r102 754 773 3.1035 
r103 753 754 0.0448201 
r104 753 764 2.13041 
r105 765 631 0.733 
r106 773 631 1.93 
r107 629 788 3 
r108 844 625 1 
r109 788 620 0.24 
r110 819 620 1.5 
r111 631 618 3 
r112 818 618 3 
r113 616 846 3 
r114 820 616 3 
r115 613 812 1.1314 
r116 613 860 0.125 
r117 612 625 0.0075 
r118 634 612 0.056 
r119 812 612 0.24 
r120 608 786 0.9662 
r121 608 634 0.02 
r122 607 776 0.5005 
r123 761 607 0.0446983 
r124 606 775 0.5005 
r125 760 606 0.0446983 
r126 605 629 0.830244 
r127 604 629 0.573659 
r128 599 600 1.37048 
r129 594 605 0.0448242 
r130 594 595 0.678222 
r131 593 600 0.0447675 
r132 593 595 0.650667 
r133 592 604 0.0446983 
r134 591 599 0.0447067 
r135 591 592 1.45854 
r136 838 587 0.31875 
r137 538 539 0.147619 
r138 534 535 0.14988 
r139 758 534 0.0380723 
r140 531 533 0.143333 
r141 755 530 0.0385542 
r142 528 530 0.14506 
r143 773 527 0.159 
r144 510 773 0.159 
r145 509 539 0.02 
r146 509 527 1.247 
r147 508 535 0.02 
r148 508 510 1.243 
r149 773 507 0.192 
r150 505 773 0.192 
r151 504 505 0.342 
r152 773 504 0.192 
r153 502 773 0.192 
r154 501 502 0.342 
r155 773 501 0.192 
r156 499 773 0.192 
r157 498 499 0.342 
r158 773 498 0.192 
r159 496 773 0.192 
r160 495 538 0.02 
r161 495 507 1.214 
r162 494 537 0.04 
r163 494 496 0.243 
r164 492 534 0.02 
r165 492 537 0.938734 
r166 779 491 0.102486 
r167 490 538 0.0380952 
r168 490 491 4.80524 
r169 489 768 0.555238 
r170 489 533 0.0380952 
r171 773 485 0.159 
r172 483 773 0.159 
r173 482 483 0.408 
r174 773 482 0.159 
r175 480 773 0.159 
r176 479 480 0.408 
r177 773 479 0.159 
r178 477 773 0.159 
r179 476 477 0.408 
r180 773 476 0.159 
r181 474 773 0.159 
r182 473 533 0.02 
r183 473 485 1.247 
r184 472 530 0.02 
r185 472 474 1.243 
r186 471 531 0.02 
r187 470 528 0.02 
r188 470 471 4.69271 
.ends

.subckt PM_PT3B03U%U29_U42_r1 53 58 66
c0 133 0 0.254953f
c1 129 0 0.130993f
c2 123 0 2.82662f
c3 113 0 0.444829f
c4 112 0 0.304369f
c5 110 0 0.340878f
c6 108 0 0.0792102f
c7 107 0 0.329567f
c8 104 0 6.54958f
c9 99 0 0.17926f
c10 98 0 9.15552f
c11 97 0 0.624464f
c12 96 0 0.304225f
c13 93 0 0.136486f
c14 87 0 0.0903556f
c15 79 0 0.171215f
c16 73 0 0.67858f
c17 67 0 0.305692f
c18 66 0 0.278026f
c19 61 0 0.163718f
c20 60 0 0.550929f
c21 58 0 3.1011f
c22 53 0 3.10209f
r23 115 133 0.00341463 
r24 113 115 3 
r25 111 113 0.0379109 
r26 111 112 0.662857 
r27 110 113 0.0379109 
r28 109 110 0.123408 
r29 107 112 0.0446983 
r30 107 108 0.352857 
r31 104 129 6 
r32 102 108 0.0448488 
r33 102 104 6.78194 
r34 98 109 0.0590783 
r35 98 99 10.868 
r36 97 99 0.0657212 
r37 125 96 0.0521951 
r38 95 97 0.117891 
r39 95 96 3 
r40 91 129 0.130323 
r41 90 93 0.153548 
r42 90 91 0.02 
r43 87 123 6 
r44 85 93 0.02 
r45 85 87 0.132903 
r46 84 123 3.99613 
r47 83 84 0.026898 
r48 79 83 0.10143 
r49 79 66 0.106667 
r50 61 73 1.85294 
r51 60 67 1.85294 
r52 55 61 3.88985 
r53 55 58 183.96 
r54 50 60 3.88985 
r55 50 53 183.96 
r56 73 27 0.00142683 
r57 133 27 3 
r58 67 9 0.00142683 
r59 125 9 3 
.ends

.subckt PM_PT3B03U%VSSO 350 356 360 421 663 882 886 893 922 929 941 955 957 962
+ 965 969 976 982 986 990 997 1003 1007 1014 1020 1024 1031 1037 1041 1048 1056
+ 1068 1106 1112 1116 1122
c0 1122 0 31.9131f
c1 1109 0 1.98471f
c2 1106 0 8.78556f
c3 1100 0 7.93825f
c4 1098 0 6.95862f
c5 1093 0 6.95927f
c6 1088 0 6.96017f
c7 1083 0 6.96129f
c8 1078 0 6.96235f
c9 1068 0 0.0019991f
c10 1063 0 8.95235f
c11 1056 0 0.342408f
c12 1041 0 1.36597f
c13 1037 0 1.40025f
c14 1024 0 1.35721f
c15 1020 0 1.35737f
c16 1007 0 2.01156f
c17 1003 0 1.76725f
c18 990 0 1.20335f
c19 986 0 0.840215f
c20 982 0 1.37894f
c21 969 0 2.02532f
c22 965 0 1.55543f
c23 962 0 1.69058f
c24 960 0 0.237135f
c25 957 0 0.00103438f
c26 955 0 8.25608e-19
c27 953 0 8.96457f
c28 939 0 7.86095f
c29 935 0 1.27875f
c30 925 0 1.65707f
c31 922 0 58.2592f
c32 889 0 1.34161f
c33 886 0 10.6383f
c34 879 0 0.331635f
c35 876 0 0.279945f
c36 872 0 0.303617f
c37 864 0 0.115216f
c38 858 0 0.378896f
c39 856 0 0.458618f
c40 854 0 1.61727f
c41 852 0 0.42871f
c42 849 0 5.07053f
c43 846 0 0.112261f
c44 845 0 0.0408562f
c45 844 0 1.55862f
c46 842 0 0.0510217f
c47 841 0 0.328516f
c48 802 0 37.484f
c49 801 0 0.651772f
c50 795 0 0.579274f
c51 791 0 0.708327f
c52 788 0 0.0415494f
c53 787 0 3.24912f
c54 785 0 0.383003f
c55 784 0 0.713156f
c56 783 0 0.303464f
c57 782 0 3.27686f
c58 781 0 0.383249f
c59 778 0 0.616722f
c60 776 0 0.100418f
c61 775 0 1.26701f
c62 774 0 2.10295f
c63 772 0 0.0503886f
c64 771 0 0.19079f
c65 770 0 0.342709f
c66 737 0 0.122915f
c67 736 0 8.8907f
c68 703 0 0.264591f
c69 699 0 7.03694f
c70 695 0 0.146306f
c71 488 0 0.605971f
c72 471 0 1.15054f
c73 469 0 0.101359f
c74 467 0 0.0540025f
c75 465 0 1.74875f
c76 464 0 0.0437703f
c77 463 0 0.346471f
c78 450 0 0.918644f
c79 449 0 0.120547f
c80 446 0 0.539914f
c81 442 0 0.0491335f
c82 441 0 0.436605f
c83 421 0 0.114597f
c84 414 0 0.121644f
c85 320 0 5.72768f
c86 287 0 14.0334f
c87 237 0 14.0339f
c88 187 0 14.0345f
c89 137 0 14.036f
c90 87 0 14.0376f
c91 10 0 0.146306f
r92 1120 1122 0.00282778 
r93 1119 1120 0.355444 
r94 1116 1119 0.00283333 
r95 1111 1113 0.0106667 
r96 1111 1112 0.02 
r97 1109 1111 0.0143333 
r98 1072 1073 0.0140639 
r99 1067 1068 0.0126606 
r100 1100 1065 0.0113761 
r101 1063 1065 0.0638298 
r102 1060 1104 2 
r103 1056 1060 0.000380952 
r104 955 1067 0.013211 
r105 1063 955 0.000917431 
r106 953 955 0.000913242 
r107 953 1072 0.0638298 
r108 940 941 0.02 
r109 939 1072 0.0113242 
r110 937 939 0.0327869 
r111 937 940 0.0166784 
r112 935 937 0.029258 
r113 932 1120 0.357143 
r114 929 932 0.21 
r115 927 1106 0.00544385 
r116 1104 927 0.0345455 
r117 925 927 1 
r118 925 929 0.445 
r119 920 922 0.00612761 
r120 920 1100 0.0327869 
r121 1048 918 0.130435 
r122 918 1098 0.00301741 
r123 1095 918 0.00301741 
r124 916 918 0.0266667 
r125 916 920 0.0287785 
r126 1031 915 0.130435 
r127 915 1093 0.00301741 
r128 1090 915 0.00301741 
r129 913 915 0.0266667 
r130 913 916 0.0242129 
r131 1014 912 0.130435 
r132 912 1088 0.00301741 
r133 1085 912 0.00301741 
r134 910 912 0.0266667 
r135 910 913 0.0242129 
r136 909 910 0.000615582 
r137 997 908 0.130435 
r138 908 1083 0.00301741 
r139 1080 908 0.00301741 
r140 906 908 0.0266667 
r141 906 909 0.0235973 
r142 976 905 0.130435 
r143 905 1078 0.00301741 
r144 1075 905 0.00301741 
r145 903 905 0.0266667 
r146 903 906 0.0242129 
r147 902 935 0.02 
r148 902 903 0.0277012 
r149 940 899 0.429445 
r150 896 1119 0.357143 
r151 893 896 0.21 
r152 891 1115 0.144409 
r153 1113 891 0.034 
r154 889 891 1 
r155 889 893 0.445 
r156 878 1104 0.0940642 
r157 878 879 0.00274999 
r158 874 876 0.0758209 
r159 870 872 0.0758209 
r160 867 960 3 
r161 864 867 0.0536842 
r162 856 858 6 
r163 855 876 0.02 
r164 855 856 0.366154 
r165 854 872 0.02 
r166 853 879 0.0757123 
r167 853 854 1.54308 
r168 852 874 0.02 
r169 851 870 0.02 
r170 851 852 0.37 
r171 848 864 0.02 
r172 848 849 6.35789 
r173 845 846 0.1275 
r174 844 845 0.0448391 
r175 843 844 2.75862 
r176 841 843 0.044715 
r177 841 842 0.466667 
r178 1041 840 0.285 
r179 838 840 0.6 
r180 1037 837 0.32 
r181 835 837 0.6 
r182 835 838 0.0396791 
r183 1024 834 0.36 
r184 832 834 0.6 
r185 832 835 0.043262 
r186 1020 831 0.37 
r187 829 831 0.6 
r188 829 832 0.0347594 
r189 828 829 0.0198396 
r190 1007 827 0.9975 
r191 825 827 0.6 
r192 825 828 0.0665241 
r193 1003 824 0.995 
r194 822 824 0.6 
r195 822 825 0.0253476 
r196 990 821 0.3425 
r197 819 821 0.6 
r198 819 822 0.0265241 
r199 986 818 0.04 
r200 816 818 0.75 
r201 816 819 0.0475936 
r202 982 815 0.365 
r203 813 815 0.6 
r204 813 816 0.0226738 
r205 969 812 0.194286 
r206 810 812 0.6 
r207 810 813 0.0233155 
r208 965 809 0.3175 
r209 807 809 0.6 
r210 807 810 0.0203209 
r211 962 806 0.96 
r212 804 806 0.666667 
r213 804 807 0.0213904 
r214 803 1109 0.02 
r215 803 804 0.0720856 
r216 802 879 0.00274999 
r217 802 838 0.0665775 
r218 801 842 0.0450432 
r219 1115 801 1.29371 
r220 795 864 0.02 
r221 795 796 0.746316 
r222 793 1068 0.230275 
r223 791 1063 0.210275 
r224 790 858 0.233846 
r225 788 960 0.109474 
r226 786 957 0.229041 
r227 786 787 0.0863581 
r228 784 953 0.209132 
r229 784 785 0.0863581 
r230 793 782 0.0861375 
r231 782 783 0.132033 
r232 791 781 0.0861375 
r233 777 778 0.4 
r234 776 790 0.0456946 
r235 775 777 0.0446983 
r236 775 776 1.626 
r237 788 774 0.0420103 
r238 773 774 3.01467 
r239 771 773 0.0446983 
r240 771 772 0.289333 
r241 770 772 0.0447588 
r242 737 955 0.128 
r243 736 783 0.0473573 
r244 736 955 0.126 
r245 703 737 0.0473573 
r246 787 703 0.132033 
r247 699 955 0.126 
r248 698 962 1.1475 
r249 696 955 0.128 
r250 695 696 0.0473573 
r251 695 785 0.250407 
r252 778 663 5.56667 
r253 849 473 6 
r254 828 471 0.75 
r255 846 469 3 
r256 467 488 0.0494737 
r257 796 467 2 
r258 464 471 0.437895 
r259 464 465 0.0407126 
r260 698 463 0.0338756 
r261 449 473 0.0413535 
r262 449 450 1.14783 
r263 445 446 0.221176 
r264 441 445 0.0446983 
r265 441 442 0.608235 
r266 439 442 0.0446983 
r267 439 465 2.01647 
r268 420 463 0.00880368 
r269 420 421 0.1375 
r270 414 770 0.6025 
r271 414 469 0.0265396 
r272 450 360 5.56667 
r273 446 356 5.56667 
r274 350 488 5.54444 
r275 323 886 0.0419737 
r276 882 323 0.0413851 
r277 909 323 0.00128205 
r278 899 320 2.21804 
r279 320 1113 0.6 
r280 1048 287 0.00313778 
r281 1098 287 0.0652174 
r282 1065 276 0.0141284 
r283 276 1067 0.0652174 
r284 1031 237 0.00313778 
r285 1093 237 0.0652174 
r286 227 1048 0.00313778 
r287 1095 227 0.0652174 
r288 1014 187 0.00313778 
r289 1088 187 0.0652174 
r290 177 1031 0.00313778 
r291 1090 177 0.0652174 
r292 997 137 0.00313778 
r293 1083 137 0.0652174 
r294 127 1014 0.00313778 
r295 1085 127 0.0652174 
r296 976 87 0.00313778 
r297 1078 87 0.0652174 
r298 77 997 0.00313778 
r299 1080 77 0.0652174 
r300 37 957 0.0126027 
r301 955 37 0.0131507 
r302 1073 37 0.0652174 
r303 27 976 0.00313778 
r304 1075 27 0.0652174 
r305 10 781 0.250407 
r306 10 699 0.0473573 
.ends

.subckt PM_PT3B03U%U30_ngate 106 115 122 129 136 173 175 193 235 240 245 251
c0 321 0 0.46305f
c1 313 0 16.5506f
c2 306 0 0.535576f
c3 303 0 0.237944f
c4 302 0 0.72438f
c5 298 0 1.51521f
c6 297 0 0.717592f
c7 294 0 0.0674234f
c8 293 0 1.5168f
c9 291 0 0.211175f
c10 289 0 5.47036f
c11 285 0 0.136082f
c12 279 0 0.720247f
c13 274 0 2.99679f
c14 258 0 0.535713f
c15 255 0 0.608491f
c16 254 0 0.169228f
c17 253 0 0.608605f
c18 252 0 0.169456f
c19 251 0 3.04886f
c20 245 0 3.04886f
c21 240 0 3.04886f
c22 235 0 3.04886f
c23 193 0 2.09506f
c24 183 0 0.43166f
c25 175 0 0.595958f
c26 173 0 0.831149f
c27 170 0 0.149707f
c28 167 0 0.145613f
c29 158 0 2.03773f
c30 155 0 2.67914f
c31 148 0 3.13562f
c32 146 0 0.0297353f
c33 143 0 0.0261329f
c34 136 0 1.0754f
c35 134 0 0.0723979f
c36 133 0 0.414673f
c37 129 0 1.35208f
c38 126 0 0.366328f
c39 122 0 1.34432f
c40 120 0 0.0712321f
c41 119 0 0.24647f
c42 115 0 1.46684f
c43 113 0 0.684381f
c44 111 0 0.062294f
c45 110 0 0.333056f
c46 106 0 2.04938f
c47 62 0 0.463762f
r48 312 313 6.68 
r49 309 312 1.85067 
r50 300 302 0.0679909 
r51 300 325 1.5 
r52 299 303 0.101609 
r53 298 302 0.080189 
r54 298 299 1.461 
r55 297 303 0.0219522 
r56 296 321 0.00536585 
r57 318 296 0.0502439 
r58 295 297 0.0688944 
r59 295 296 1.5 
r60 293 303 0.101609 
r61 293 294 1.745 
r62 309 291 6 
r63 289 291 6 
r64 288 294 0.0450816 
r65 288 289 7.68471 
r66 285 283 0.0545192 
r67 279 282 0.0447588 
r68 279 280 0.876 
r69 306 271 0.00142683 
r70 268 306 0.0277856 
r71 255 306 5.05882 
r72 254 306 5.05882 
r73 253 258 5.05882 
r74 252 258 5.05882 
r75 247 255 3.88985 
r76 247 251 183.96 
r77 242 254 3.88985 
r78 242 245 183.96 
r79 237 253 3.88985 
r80 237 240 183.96 
r81 232 252 3.88985 
r82 232 235 183.96 
r83 170 175 60 
r84 170 190 3.77986 
r85 167 173 85 
r86 167 183 3.53757 
r87 285 158 6 
r88 283 155 2.2175 
r89 282 155 1.515 
r90 155 313 6 
r91 193 154 1.505 
r92 280 154 6 
r93 183 152 0.3325 
r94 274 152 6 
r95 149 277 2.2825 
r96 274 149 1.32 
r97 149 312 6 
r98 148 190 3.7825 
r99 277 148 6 
r100 145 158 3.105 
r101 145 146 0.0329896 
r102 144 193 1.3075 
r103 140 142 0.06125 
r104 135 146 0.0329896 
r105 135 136 1.2375 
r106 133 146 0.00955498 
r107 133 134 0.526452 
r108 128 134 0.044713 
r109 128 129 1.2375 
r110 127 143 0.0338756 
r111 126 144 0.0446983 
r112 126 127 0.51 
r113 121 143 0.00880368 
r114 121 122 1.3075 
r115 120 142 0.04 
r116 119 143 0.0338756 
r117 119 120 0.4325 
r118 114 142 0.02 
r119 114 115 1.4425 
r120 113 140 0.02 
r121 112 113 1.08375 
r122 110 112 0.0450043 
r123 110 111 0.388108 
r124 105 111 0.0450043 
r125 105 106 1.93125 
r126 325 62 0.00292683 
r127 62 271 3 
r128 258 38 0.00142683 
r129 321 38 3 
r130 26 325 0.0526829 
r131 26 268 3 
r132 258 9 0.0277856 
r133 318 9 3 
.ends

.subckt PM_PT3B03U%U17_ngate2 90 100 105 112 179 184 189 195
c0 262 0 0.451317f
c1 253 0 0.535792f
c2 250 0 0.24874f
c3 249 0 1.00988f
c4 245 0 1.502f
c5 244 0 0.999059f
c6 241 0 0.0625815f
c7 240 0 4.82045f
c8 236 0 4.16424f
c9 234 0 0.639802f
c10 224 0 0.140349f
c11 220 0 0.189195f
c12 203 0 0.535897f