* File: pc3t03.dist.sp.pex
* Created: Sun Jul  4 12:45:32 2010
* Program "Calibre xRC"
* Version "v2008.4_19.14"
* Nominal Temperature: 27C
* Circuit Temperature: 27C
* 
.subckt PM_PC3T03%PAD 21 50 79 108 137 166 218 242 266 290 320 326 389 428 452
+ 459
c0 467 0 29.556f
c1 460 0 83.073f
c2 459 0 64.3341f
c3 456 0 159.215f
c4 451 0 0.991473f
c5 444 0 9.95297f
c6 434 0 14.4468f
c7 425 0 0.117887f
c8 423 0 213.168f
c9 408 0 15.3329f
c10 397 0 46.9214f
c11 392 0 65.4578f
c12 390 0 15.8892f
c13 389 0 1.04872f
c14 388 0 3.87627f
c15 326 0 13.3722f
c16 320 0 13.3637f
c17 290 0 13.36f
c18 266 0 13.3725f
c19 242 0 13.6428f
c20 218 0 13.3618f
c21 176 0 7.52869f
c22 166 0 2.98552f
c23 149 0 6.78371f
c24 137 0 2.98621f
c25 120 0 6.78371f
c26 108 0 2.98621f
c27 91 0 6.78371f
c28 79 0 2.9856f
c29 62 0 6.78371f
c30 50 0 2.9856f
c31 33 0 6.78371f
c32 21 0 2.98547f
c33 4 0 6.78371f
r34 467 468 0.118407 
r35 466 467 0.118407 
r36 465 466 0.056883 
r37 464 465 0.061524 
r38 463 464 0.118407 
r39 462 463 0.0830354 
r40 461 462 0.0353716 
r41 459 460 0.0124825 
r42 457 459 0.000593149 
r43 456 457 0.0669731 
r44 451 452 0.00916 
r45 444 462 0.0545455 
r46 434 465 0.015 
r47 425 428 0.00916 
r48 425 451 2 
r49 423 434 0.0264274 
r50 421 423 0.147454 
r51 421 422 0.0288462 
r52 415 416 0.00752787 
r53 414 415 0.021023 
r54 412 414 0.000537705 
r55 412 456 0.00162999 
r56 410 412 0.000537705 
r57 408 410 0.0285508 
r58 399 451 0.1388 
r59 398 399 0.132996 
r60 397 398 0.0171733 
r61 394 395 0.0171733 
r62 393 394 0.0171733 
r63 392 393 0.0171733 
r64 391 397 0.0142401 
r65 391 395 0.00293318 
r66 390 422 0.00646891 
r67 390 392 0.00818451 
r68 388 444 0.202116 
r69 388 389 0.0147368 
r70 315 320 0.0072093 
r71 392 315 0.0566038 
r72 313 326 0.0072093 
r73 398 313 0.0566038 
r74 286 290 0.0072093 
r75 397 286 0.0566038 
r76 262 266 0.0072093 
r77 395 262 0.0566038 
r78 238 242 0.0072093 
r79 394 238 0.0566038 
r80 214 218 0.0072093 
r81 393 214 0.0566038 
r82 194 197 0.0022831 
r83 416 194 0.0375475 
r84 194 457 0.00547945 
r85 414 193 0.00210084 
r86 191 193 0.000537705 
r87 410 191 0.00210084 
r88 193 182 0.0105115 
r89 415 182 0.00712251 
r90 178 197 0.0187738 
r91 182 178 0.00376393 
r92 416 178 0.00712251 
r93 176 191 0.0142754 
r94 408 176 0.00356125 
r95 460 173 0.345778 
r96 172 468 0.0220132 
r97 172 173 0.319822 
r98 166 153 0.00249413 
r99 173 153 0.0425532 
r100 149 166 0.00249413 
r101 173 149 0.0425532 
r102 460 144 0.345778 
r103 143 467 0.0220132 
r104 143 144 0.319822 
r105 137 124 0.00249413 
r106 144 124 0.0425532 
r107 120 137 0.00249413 
r108 144 120 0.0425532 
r109 460 115 0.345778 
r110 114 466 0.0220132 
r111 114 115 0.319822 
r112 108 95 0.00249413 
r113 115 95 0.0425532 
r114 91 108 0.00249413 
r115 115 91 0.0425532 
r116 460 86 0.345778 
r117 85 464 0.0220132 
r118 85 86 0.319822 
r119 79 66 0.00249413 
r120 86 66 0.0425532 
r121 62 79 0.00249413 
r122 86 62 0.0425532 
r123 460 57 0.345778 
r124 56 463 0.0220132 
r125 56 57 0.319822 
r126 50 37 0.00249413 
r127 57 37 0.0425532 
r128 33 50 0.00249413 
r129 57 33 0.0425532 
r130 460 28 0.345778 
r131 27 461 0.0220132 
r132 27 28 0.319822 
r133 21 8 0.00249413 
r134 28 8 0.0425532 
r135 4 21 0.00249413 
r136 28 4 0.0425532 
.ends

.subckt PM_PC3T03%noxref_2 8 18
c0 20 0 4.82229f
c1 18 0 0.993329f
c2 8 0 6.7068f
r3 18 20 0.158105 
r4 20 8 0.158526 
.ends

.subckt PM_PC3T03%net_m32_VSSO_res 45 64 71 76 83 117
c0 117 0 0.73297f
c1 113 0 0.842161f
c2 107 0 0.0545005f
c3 93 0 0.0628754f
c4 87 0 0.235924f
c5 83 0 0.519409f
c6 81 0 0.19588f
c7 80 0 0.135544f
c8 76 0 0.519409f
c9 71 0 0.519409f
c10 69 0 0.102851f
c11 68 0 0.162435f
c12 64 0 0.733874f
c13 45 0 0.372606f
c14 44 0 0.192772f
c15 43 0 0.0478161f
c16 42 0 0.36684f
r17 108 113 0.0458824 
r18 107 108 0.02 
r19 106 107 0.124706 
r20 94 117 85 
r21 91 113 2.20253 
r22 90 92 6.2212 
r23 90 91 1.5553 
r24 89 90 10.0922 
r25 88 93 2.23066 
r26 87 94 3.37824 
r27 87 88 10.8571 
r28 82 93 0.93595 
r29 82 83 85 
r30 81 92 4.70046 
r31 80 93 2.23066 
r32 80 81 9 
r33 75 92 1.5553 
r34 75 76 85 
r35 70 89 1.5553 
r36 70 71 85 
r37 68 89 2.90323 
r38 68 69 10.8571 
r39 63 69 3.37824 
r40 63 64 85 
r41 44 45 0.18 
r42 106 43 0.0446983 
r43 42 44 0.0446983 
r44 42 43 0.521176 
.ends

.subckt PM_PC3T03%U28_padr 40 44 52 118 120 123 163
c0 233 0 16.1841f
c1 227 0 9.31824f
c2 223 0 15.9129f
c3 206 0 0.145078f
c4 205 0 0.0372956f
c5 204 0 0.0478417f
c6 203 0 0.0873247f
c7 200 0 6.60484f
c8 197 0 0.611623f
c9 195 0 0.145869f
c10 191 0 5.63632f
c11 189 0 0.516633f
c12 187 0 0.0693973f
c13 186 0 0.207306f
c14 185 0 0.411447f
c15 179 0 2.02849f
c16 173 0 0.484333f
c17 164 0 0.393604f
c18 163 0 1.07645f
c19 162 0 0.703354f
c20 143 0 0.430753f
c21 138 0 0.0817276f
c22 123 0 1.05186f
c23 120 0 0.575335f
c24 118 0 1.02278f
c25 111 0 0.0984887f
c26 92 0 0.134724f
c27 90 0 16.0857f
c28 85 0 0.565389f
c29 84 0 0.372629f
c30 82 0 0.104433f
c31 79 0 1.7393f
c32 78 0 0.656638f
c33 72 0 0.0454867f
c34 71 0 0.0323226f
c35 70 0 0.0875376f
c36 65 0 0.111772f
c37 62 0 0.0982054f
c38 58 0 0.31549f
c39 56 0 0.0685833f
c40 55 0 0.0982496f
c41 52 0 1.29706f
c42 49 0 0.0427005f
c43 48 0 0.377238f
c44 44 0 2.48299f
c45 40 0 1.54399f
r46 233 225 0.172857 
r47 223 225 6 
r48 222 223 11.016 
r49 206 208 3 
r50 205 206 0.109474 
r51 205 203 0.0456991 
r52 203 204 0.147143 
r53 200 233 2 
r54 198 204 0.0446983 
r55 198 200 10.3129 
r56 197 208 0.30381 
r57 193 195 0.10375 
r58 227 191 0.185079 
r59 189 191 1.2 
r60 188 189 0.482857 
r61 186 188 0.0446983 
r62 186 187 0.125714 
r63 185 187 0.0446983 
r64 184 197 0.0446983 
r65 184 185 0.407619 
r66 179 181 2.8475 
r67 172 195 0.02 
r68 172 173 0.755 
r69 168 193 0.02 
r70 162 227 0.18836 
r71 162 163 0.0147368 
r72 127 129 3.08933 
r73 143 111 0.77 
r74 110 123 168.333 
r75 110 111 3.92502 
r76 105 120 51.6667 
r77 104 105 1.66667 
r78 97 118 168.333 
r79 138 97 3.6393 
r80 179 92 6 
r81 129 90 1.07733 
r82 181 90 6 
r83 181 87 0.8025 
r84 87 143 6 
r85 85 177 1.2525 
r86 85 222 6 
r87 84 138 0.7825 
r88 177 84 6 
r89 173 82 6 
r90 79 170 0.8 
r91 168 79 2.045 
r92 79 129 6 
r93 170 78 6 
r94 76 222 3.96133 
r95 164 76 6 
r96 164 73 0.482667 
r97 73 127 6 
r98 72 92 0.05 
r99 68 70 0.12 
r100 68 78 0.8825 
r101 66 82 0.04375 
r102 65 66 0.02 
r103 63 65 0.10375 
r104 62 72 0.0446983 
r105 61 71 0.0338756 
r106 61 62 0.1875 
r107 58 104 1.16667 
r108 57 71 0.0338756 
r109 57 58 0.245 
r110 55 71 0.00880368 
r111 55 56 0.25 
r112 51 56 0.0446983 
r113 51 52 1.2575 
r114 50 52 1.3775 
r115 48 50 0.0447588 
r116 48 49 0.544 
r117 70 44 2.375 
r118 39 63 0.02 
r119 39 40 1.40875 
r120 38 49 0.0447588 
r121 38 40 1.3775 
.ends

.subckt PM_PC3T03%VSS 759 799 821 846 851 863 865 870
c0 870 0 92.1927f
c1 863 0 55.6355f
c2 849 0 2.37405f
c3 846 0 0.00368951f
c4 843 0 1.24098f
c5 829 0 16.5939f
c6 817 0 1.88726f
c7 810 0 15.2047f
c8 796 0 1.45509f
c9 773 0 24.8356f
c10 771 0 0.0842555f
c11 770 0 10.3185f
c12 769 0 0.0657505f
c13 768 0 7.73164f
c14 766 0 0.184939f
c15 763 0 0.0372194f
c16 759 0 4.21663f
c17 756 0 0.144425f
c18 754 0 0.578389f
c19 747 0 8.78685f
c20 745 0 0.194465f
c21 744 0 0.100013f
c22 743 0 1.92708f
c23 620 0 2.22376f
c24 616 0 2.48828f
c25 612 0 1.35297f
c26 610 0 0.228409f
c27 608 0 0.276497f
c28 605 0 26.6407f
c29 599 0 0.816164f
c30 598 0 6.34069f
c31 592 0 2.03915f
c32 586 0 0.137389f
c33 585 0 2.48809f
c34 584 0 0.154374f
c35 583 0 2.24749f
c36 539 0 0.162892f
c37 537 0 0.72248f
c38 535 0 0.203897f
c39 510 0 2.94312f
c40 496 0 3.05957f
c41 494 0 0.031054f
c42 491 0 0.571035f
c43 490 0 6.91145f
c44 489 0 0.161087f
c45 474 0 3.75323f
c46 471 0 2.96412f
r47 865 868 0.000703354 
r48 861 863 0.00318245 
r49 860 861 0.00119641 
r50 859 860 0.0758524 
r51 858 859 0.0344168 
r52 857 858 0.167059 
r53 856 857 0.128574 
r54 855 856 0.0141176 
r55 854 855 0.089651 
r56 851 854 0.00438684 
r57 849 861 0.461538 
r58 843 846 1.28857 
r59 843 859 1.5 
r60 837 857 0.0535714 
r61 824 860 0.428571 
r62 821 824 0.189 
r63 819 870 0.000702051 
r64 868 819 0.0832563 
r65 817 819 0.131579 
r66 817 821 0.013 
r67 814 815 0.56934 
r68 813 814 1.12447 
r69 810 813 0.628223 
r70 810 858 0.3 
r71 802 854 0.428571 
r72 799 802 0.189 
r73 796 799 0.013 
r74 796 868 0.131579 
r75 770 771 0.0338756 
r76 768 837 2.8715 
r77 768 769 0.0338756 
r78 762 771 0.0338756 
r79 761 769 0.0338756 
r80 759 841 2.59036 
r81 839 759 1.07807 
r82 829 759 1.577 
r83 758 771 0.00880368 
r84 758 759 0.958 
r85 757 769 0.00880368 
r86 757 759 0.986 
r87 766 756 0.0632911 
r88 756 754 0.0574488 
r89 753 763 0.0448201 
r90 750 849 1.518 
r91 749 849 0.426 
r92 747 841 1.08482 
r93 745 839 1.06072 
r94 744 829 1.5265 
r95 743 744 0.0448201 
r96 743 753 2.13041 
r97 770 622 0.733 
r98 759 622 1.93 
r99 620 783 3 
r100 617 837 1.612 
r101 763 617 1.283 
r102 617 856 1.5 
r103 839 616 1 
r104 783 612 0.24 
r105 814 612 1.5 
r106 622 610 3 
r107 813 610 3 
r108 608 841 3 
r109 815 608 3 
r110 605 807 1.1314 
r111 605 855 0.125 
r112 604 616 0.0075 
r113 625 604 0.056 
r114 807 604 0.24 
r115 602 766 0.0155975 
r116 773 602 1 
r117 600 773 0.9662 
r118 600 625 0.02 
r119 599 762 0.5005 
r120 750 599 0.0446983 
r121 598 761 0.5005 
r122 749 598 0.0446983 
r123 597 620 0.830244 
r124 596 620 0.573659 
r125 591 592 1.37048 
r126 586 597 0.0448242 
r127 586 587 0.678222 
r128 585 592 0.0447675 
r129 585 587 0.650667 
r130 584 596 0.0446983 
r131 583 591 0.0447067 
r132 583 584 1.45854 
r133 538 539 0.147619 
r134 534 535 0.14988 
r135 747 534 0.0380723 
r136 531 533 0.143333 
r137 745 530 0.0385542 
r138 528 530 0.14506 
r139 759 527 0.159 
r140 510 759 0.159 
r141 509 539 0.02 
r142 509 527 1.247 
r143 508 535 0.02 
r144 508 510 1.243 
r145 759 507 0.192 
r146 505 759 0.192 
r147 504 505 0.342 
r148 759 504 0.192 
r149 502 759 0.192 
r150 501 502 0.342 
r151 759 501 0.192 
r152 499 759 0.192 
r153 498 499 0.342 
r154 759 498 0.192 
r155 496 759 0.192 
r156 495 538 0.02 
r157 495 507 1.214 
r158 494 537 0.04 
r159 494 496 0.243 
r160 492 534 0.02 
r161 492 537 0.938734 
r162 602 491 0.102486 
r163 490 538 0.0380952 
r164 490 491 4.80524 
r165 489 754 0.555238 
r166 489 533 0.0380952 
r167 759 485 0.159 
r168 483 759 0.159 
r169 482 483 0.408 
r170 759 482 0.159 
r171 480 759 0.159 
r172 479 480 0.408 
r173 759 479 0.159 
r174 477 759 0.159 
r175 476 477 0.408 
r176 759 476 0.159 
r177 474 759 0.159 
r178 473 533 0.02 
r179 473 485 1.247 
r180 472 530 0.02 
r181 472 474 1.243 
r182 471 531 0.02 
r183 470 528 0.02 
r184 470 471 4.69271 
.ends

.subckt PM_PC3T03%U28_U42_r1 149 154 159 164 169 174 188
c0 303 0 0.252886f
c1 299 0 0.130993f
c2 297 0 0.447165f
c3 292 0 0.447165f
c4 283 0 2.82662f
c5 270 0 0.432351f
c6 259 0 1.21055f
c7 253 0 1.21055f
c8 252 0 0.304369f
c9 250 0 0.379151f
c10 248 0 0.0792102f
c11 247 0 0.329567f
c12 244 0 6.54958f
c13 240 0 5.98872f
c14 238 0 1.11617f
c15 237 0 0.181486f
c16 236 0 1.11617f
c17 235 0 0.626642f
c18 234 0 0.295919f
c19 231 0 0.136486f
c20 225 0 0.0903556f
c21 217 0 0.171215f
c22 211 0 0.678581f
c23 203 0 0.532624f
c24 195 0 0.532624f
c25 189 0 0.305612f
c26 188 0 0.278026f
c27 181 0 0.163718f
c28 180 0 0.615146f
c29 179 0 0.171476f
c30 178 0 0.615146f
c31 177 0 0.171476f
c32 176 0 0.550917f
c33 174 0 3.10095f
c34 169 0 3.04432f
c35 164 0 3.04432f
c36 159 0 3.04432f
c37 154 0 3.04432f
c38 149 0 3.10208f
r39 269 303 0.00341463 
r40 267 269 3 
r41 267 270 0.017 
r42 265 267 0.0283 
r43 263 297 0.00292683 
r44 294 263 0.0526829 
r45 261 263 1.5 
r46 259 261 0.073098 
r47 257 292 0.00536585 
r48 289 257 0.0502439 
r49 255 257 1.5 
r50 253 255 0.073098 
r51 251 270 0.02 
r52 251 252 0.662857 
r53 250 265 0.02 
r54 249 250 0.102305 
r55 247 252 0.0446983 
r56 247 248 0.352857 
r57 244 299 6 
r58 242 248 0.0448488 
r59 242 244 6.78194 
r60 241 259 0.02 
r61 240 249 0.064391 
r62 240 241 7.042 
r63 239 253 0.02 
r64 238 259 0.02 
r65 238 239 1.378 
r66 236 253 0.02 
r67 236 237 1.378 
r68 235 237 0.0661591 
r69 285 234 0.0521951 
r70 233 235 0.11639 
r71 233 234 3 
r72 229 299 0.130323 
r73 228 231 0.153548 
r74 228 229 0.02 
r75 225 283 6 
r76 223 231 0.02 
r77 223 225 0.132903 
r78 222 283 3.99613 
r79 221 222 0.026898 
r80 217 221 0.10143 
r81 217 188 0.106667 
r82 181 211 1.85294 
r83 180 203 5.05882 
r84 179 203 5.05882 
r85 178 195 5.05882 
r86 177 195 5.05882 
r87 176 189 1.85294 
r88 171 181 3.88985 
r89 171 174 183.96 
r90 166 180 3.88985 
r91 166 169 183.96 
r92 161 179 3.88985 
r93 161 164 183.96 
r94 156 178 3.88985 
r95 156 159 183.96 
r96 151 177 3.88985 
r97 151 154 183.96 
r98 146 176 3.88985 
r99 146 149 183.96 
r100 211 99 0.00142683 
r101 303 99 3 
r102 203 81 0.00142683 
r103 297 81 3 
r104 195 56 0.00142683 
r105 292 56 3 
r106 203 45 0.0277856 
r107 294 45 3 
r108 189 20 0.00142683 
r109 285 20 3 
r110 195 9 0.0277856 
r111 289 9 3 
.ends

.subckt PM_PC3T03%VSSO 407 432 434 470 789 793 800 829 836 848 862 864 869 874
+ 880 889 895 901 907 916 922 928 937 943 949 958 964 970 979 985 997 1049 1055
+ 1059 1065
c0 1065 0 32.1232f
c1 1052 0 1.99786f
c2 1049 0 46.2958f
c3 1029 0 7.93913f
c4 1027 0 6.95922f
c5 1022 0 6.95952f
c6 1017 0 6.96108f
c7 1012 0 6.99818f
c8 1007 0 6.99818f
c9 997 0 0.00201521f
c10 992 0 8.95235f
c11 985 0 0.342408f
c12 970 0 1.36597f
c13 964 0 1.40025f
c14 949 0 1.35721f
c15 943 0 1.35624f
c16 928 0 1.34294f
c17 922 0 1.16989f
c18 907 0 1.38145f
c19 901 0 0.838867f
c20 895 0 1.37456f
c21 880 0 1.32465f
c22 874 0 1.55524f
c23 869 0 1.69047f
c24 867 0 0.24116f
c25 864 0 0.00103378f
c26 862 0 8.25608e-19
c27 860 0 8.96457f
c28 846 0 7.86215f
c29 842 0 1.27875f
c30 832 0 1.65707f
c31 829 0 58.2588f
c32 796 0 1.34856f
c33 793 0 10.6383f
c34 781 0 0.115227f
c35 775 0 4.88155f
c36 772 0 0.112689f
c37 771 0 0.0401332f
c38 770 0 1.52711f
c39 768 0 0.0508991f
c40 767 0 0.32733f
c41 766 0 0.686341f
c42 762 0 0.519781f
c43 756 0 0.708327f
c44 754 0 0.0425963f
c45 753 0 3.25339f
c46 751 0 0.383003f
c47 750 0 0.713156f
c48 749 0 0.303464f
c49 748 0 3.2754f
c50 747 0 0.383249f
c51 746 0 2.14307f
c52 744 0 0.0561467f
c53 743 0 0.185287f
c54 742 0 0.343481f
c55 709 0 0.122915f
c56 708 0 8.89516f
c57 675 0 0.264591f
c58 671 0 7.03694f
c59 667 0 0.146306f
c60 470 0 0.420824f
c61 454 0 0.897859f
c62 452 0 0.102374f
c63 450 0 0.228551f
c64 448 0 1.48087f
c65 447 0 0.031507f
c66 446 0 0.346454f
c67 434 0 0.765589f
c68 433 0 0.107288f
c69 432 0 0.34681f
c70 431 0 0.192908f
c71 428 0 0.0481945f
c72 427 0 0.437966f
c73 407 0 0.114597f
c74 400 0 0.121681f
c75 315 0 7.04049f
c76 282 0 14.0332f
c77 232 0 14.0339f
c78 182 0 14.0358f
c79 132 0 14.0465f
c80 82 0 14.0465f
c81 10 0 0.146306f
r82 1063 1065 0.00282778 
r83 1062 1063 0.355444 
r84 1059 1062 0.00283333 
r85 1054 1056 0.0104918 
r86 1054 1055 0.02 
r87 1052 1054 0.0140984 
r88 1046 1047 0.166203 
r89 1045 1046 0.0396791 
r90 1044 1045 0.043262 
r91 1043 1044 0.0347594 
r92 1042 1043 0.0194118 
r93 1041 1042 0.0785027 
r94 1040 1041 0.0253476 
r95 1039 1040 0.0265241 
r96 1038 1039 0.0369519 
r97 1037 1038 0.0226738 
r98 1036 1037 0.0224064 
r99 1035 1036 0.0203209 
r100 1034 1035 0.0213904 
r101 1033 1052 0.02 
r102 1033 1034 0.0716578 
r103 1001 1002 0.0140639 
r104 996 997 0.0126606 
r105 1029 994 0.0113761 
r106 992 994 0.0638298 
r107 989 1047 2 
r108 985 989 0.000380952 
r109 973 1046 0.6 
r110 970 973 0.285 
r111 967 1045 0.6 
r112 964 967 0.32 
r113 952 1044 0.6 
r114 949 952 0.36 
r115 946 1043 0.6 
r116 943 946 0.37 
r117 931 1041 0.6 
r118 928 931 0.3225 
r119 925 1040 0.6 
r120 922 925 0.325 
r121 910 1039 0.6 
r122 907 910 0.3425 
r123 904 1038 0.75 
r124 901 904 0.04 
r125 898 1037 0.6 
r126 895 898 0.365 
r127 883 1036 0.6 
r128 880 883 0.194286 
r129 877 1035 0.6 
r130 874 877 0.3175 
r131 871 1034 0.666667 
r132 869 871 0.96 
r133 862 996 0.013211 
r134 992 862 0.000917431 
r135 860 862 0.000913242 
r136 860 1001 0.0638298 
r137 847 848 0.02 
r138 846 1001 0.0113242 
r139 844 846 0.0327869 
r140 844 847 0.0166784 
r141 842 844 0.029258 
r142 839 1063 0.357143 
r143 836 839 0.21 
r144 834 1049 0.00544385 
r145 1047 834 0.0345455 
r146 832 834 1 
r147 832 836 0.445 
r148 827 829 0.00612761 
r149 827 1029 0.0327869 
r150 979 825 0.130435 
r151 825 1027 0.00301741 
r152 1024 825 0.00301741 
r153 823 825 0.0266667 
r154 823 827 0.0287785 
r155 958 822 0.130435 
r156 822 1022 0.00301741 
r157 1019 822 0.00301741 
r158 820 822 0.0266667 
r159 820 823 0.0242129 
r160 937 819 0.130435 
r161 819 1017 0.00301741 
r162 1014 819 0.00301741 
r163 817 819 0.0266667 
r164 817 820 0.0242129 
r165 816 817 0.000615582 
r166 916 815 0.130435 
r167 815 1012 0.00301741 
r168 1009 815 0.00301741 
r169 813 815 0.0266667 
r170 813 816 0.0235973 
r171 889 812 0.130435 
r172 812 1007 0.00301741 
r173 1004 812 0.00301741 
r174 810 812 0.0266667 
r175 810 813 0.0242129 
r176 809 842 0.02 
r177 809 810 0.0277012 
r178 847 806 0.429445 
r179 803 1062 0.357143 
r180 800 803 0.21 
r181 798 1058 0.144162 
r182 1056 798 0.0334426 
r183 796 798 1 
r184 796 800 0.445 
r185 784 867 3 
r186 781 784 0.0536842 
r187 774 781 0.02 
r188 774 775 6.36632 
r189 771 772 0.1275 
r190 770 771 0.0448391 
r191 769 770 2.75862 
r192 767 769 0.044715 
r193 767 768 0.466667 
r194 766 768 0.0450432 
r195 1058 766 1.29371 
r196 762 781 0.02 
r197 762 763 0.737895 
r198 758 997 0.230275 
r199 756 992 0.210275 
r200 754 867 0.109474 
r201 752 864 0.229041 
r202 752 753 0.0863581 
r203 750 860 0.209132 
r204 750 751 0.0863581 
r205 758 748 0.0861375 
r206 748 749 0.132033 
r207 756 747 0.0861375 
r208 754 746 0.0420103 
r209 745 746 3.01467 
r210 743 745 0.0446983 
r211 743 744 0.278667 
r212 742 744 0.0447588 
r213 709 862 0.128 
r214 708 749 0.0473573 
r215 708 862 0.126 
r216 675 709 0.0473573 
r217 753 675 0.132033 
r218 671 862 0.126 
r219 670 869 1.1475 
r220 668 862 0.128 
r221 667 668 0.0473573 
r222 667 751 0.250407 
r223 775 456 6 
r224 1042 454 0.75 
r225 772 452 3 
r226 470 450 0.0610526 
r227 763 450 2 
r228 447 454 0.437895 
r229 447 448 0.0407126 
r230 670 446 0.0338756 
r231 433 456 0.0413535 
r232 433 434 1.14783 
r233 431 432 0.221176 
r234 427 431 0.0446983 
r235 427 428 0.608235 
r236 425 428 0.0446983 
r237 425 448 2.01647 
r238 406 446 0.00880368 
r239 406 407 0.1375 
r240 400 742 0.6025 
r241 400 452 0.0265396 
r242 318 793 0.0419737 
r243 789 318 0.0413851 
r244 816 318 0.00128205 
r245 806 315 2.21804 
r246 315 1056 0.6 
r247 979 282 0.00313778 
r248 1027 282 0.0652174 
r249 994 271 0.0141284 
r250 271 996 0.0652174 
r251 958 232 0.00313778 
r252 1022 232 0.0652174 
r253 222 979 0.00313778 
r254 1024 222 0.0652174 
r255 937 182 0.00313778 
r256 1017 182 0.0652174 
r257 172 958 0.00313778 
r258 1019 172 0.0652174 
r259 916 132 0.00313778 
r260 1012 132 0.0652174 
r261 122 937 0.00313778 
r262 1014 122 0.0652174 
r263 889 82 0.00313778 
r264 1007 82 0.0652174 
r265 72 916 0.00313778 
r266 1009 72 0.0652174 
r267 32 864 0.0126027 
r268 862 32 0.0131507 
r269 1002 32 0.0652174 
r270 22 889 0.00313778 
r271 1004 22 0.0652174 
r272 10 747 0.250407 
r273 10 671 0.0473573 
.ends

.subckt PM_PC3T03%U15_ngate 70 77 84 91 99 107 143 145 193 199
c0 248 0 16.5863f
c1 240 0 0.53366f
c2 235 0 1.20012f
c3 233 0 0.0955656f
c4 232 0 4.78319f
c5 230 0 0.19802f
c6 228 0 6.57281f
c7 225 0 0.101723f
c8 211 0 2.99122f
c9 201 0 0.60308f
c10 200 0 0.166401f
c11 199 0 3.04886f
c12 193 0 3.04886f
c13 153 0 0.431578f
c14 145 0 0.595847f
c15 143 0 0.830826f
c16 140 0 0.149707f
c17 137 0 0.145617f
c18 128 0 0.135503f
c19 125 0 1.31788f
c20 124 0 0.135508f
c21 121 0 0.815081f
c22 116 0 3.13587f
c23 114 0 0.0377296f
c24 113 0 0.0461791f
c25 112 0 0.0266062f
c26 111 0 0.0261329f
c27 107 0 0.972683f
c28 104 0 0.128883f
c29 103 0 1.65084f
c30 99 0 1.31073f
c31 96 0 0.0804526f
c32 95 0 0.252089f
c33 91 0 1.33816f
c34 88 0 0.34697f
c35 84 0 1.42004f
c36 81 0 0.24887f
c37 77 0 1.459f
c38 75 0 0.0500957f
c39 74 0 0.28959f
c40 70 0 1.43018f
c41 26 0 0.437428f
r42 247 248 0.397333 
r43 246 247 5.35733 
r44 243 246 1.948 
r45 235 238 0.0727843 
r46 235 255 1.5 
r47 232 238 0.02 
r48 232 233 5.544 
r49 243 230 6 
r50 228 230 6 
r51 227 233 0.0447005 
r52 227 228 6.41185 
r53 223 225 0.0755556 
r54 216 223 0.02 
r55 240 208 0.00142683 
r56 205 240 0.0277856 
r57 201 240 5.05882 
r58 200 240 5.05882 
r59 195 201 3.88985 
r60 195 199 183.96 
r61 190 200 3.88985 
r62 190 193 183.96 
r63 140 145 60 
r64 140 160 3.77986 
r65 137 143 85 
r66 137 153 3.53757 
r67 128 166 0.0370021 
r68 225 128 6 
r69 125 221 2.59143 
r70 125 248 6 
r71 221 124 6 
r72 216 121 1.53143 
r73 121 247 6 
r74 153 120 0.3325 
r75 211 120 6 
r76 117 214 2.2825 
r77 211 117 1.32 
r78 117 246 6 
r79 116 160 3.7825 
r80 214 116 6 
r81 113 124 0.0613333 
r82 106 107 1.2375 
r83 105 114 0.0310989 
r84 104 106 0.044713 
r85 104 105 0.152258 
r86 103 114 0.0112231 
r87 102 113 0.0447675 
r88 102 103 3.52 
r89 166 99 1.6275 
r90 97 99 1.28 
r91 95 114 0.0310989 
r92 95 96 0.301935 
r93 90 96 0.044713 
r94 90 91 1.2375 
r95 89 112 0.0338756 
r96 88 97 0.0446983 
r97 88 89 0.51 
r98 83 112 0.00880368 
r99 83 84 1.28 
r100 82 111 0.0338756 
r101 81 112 0.0338756 
r102 81 82 0.43 
r103 76 111 0.00880368 
r104 76 77 1.415 
r105 74 111 0.0338756 
r106 74 75 0.51 
r107 69 75 0.0446983 
r108 69 70 1.415 
r109 255 26 0.000487805 
r110 26 208 3 
r111 8 255 0.055122 
r112 8 205 3 
.ends

.subckt PM_PC3T03%U17_ngate2 54 64 69 76 131 137
c0 176 0 0.533727f
c1 175 0 1.18565f
c2 172 0 0.0646472f
c3 171 0 6.71916f
c4 167 0 4.35202f
c5 165 0 0.5479f
c6 155 0 0.14037f
c7 151 0 0.186288f
c8 141 0 0.200206f
c9 139 0 0.606155f
c10 138 0 0.166949f
c11 137 0 3.04886f
c12 131 0 3.04886f
c13 108 0 0.313586f
c14 103 0 12.6341f
c15 93 0 0.703456f
c16 92 0 3.24331f
c17 87 0 3.09027f
c18 86 0 0.13299f
c19 84 0 0.0352945f
c20 81 0 0.0822206f
c21 80 0 0.238182f
c22 76 0 0.492912f
c23 74 0 0.0294251f
c24 73 0 0.0398528f
c25 69 0 0.491802f
c26 64 0 1.5327f
c27 62 0 0.0689962f
c28 61 0 0.12302f
c29 59 0 0.672535f
c30 58 0 3.58758f
c31 54 0 2.26917f
c32 26 0 0.433003f
r33 173 175 0.0955328 
r34 173 184 1.5 
r35 171 175 0.0867997 
r36 171 172 7.066 
r37 167 169 6 
r38 166 172 0.0446983 
r39 166 167 5.048 
r40 165 169 0.597143 
r41 157 160 0.58625 
r42 155 157 0.0448391 
r43 155 156 0.0717241 
r44 151 153 6 
r45 150 165 0.0446983 
r46 150 151 0.198571 
r47 176 147 0.00142683 
r48 144 176 0.0277856 
r49 141 153 0.10375 
r50 139 176 5.05882 
r51 138 176 5.05882 
r52 133 139 3.88985 
r53 133 137 183.96 
r54 128 138 3.88985 
r55 128 131 183.96 
r56 107 108 0.245 
r57 141 107 0.04 
r58 93 163 0.742857 
r59 93 103 6 
r60 163 92 6 
r61 90 103 1.12267 
r62 160 90 6 
r63 87 160 2.98125 
r64 87 108 6 
r65 156 86 6 
r66 82 92 4.21429 
r67 81 86 0.0468966 
r68 84 76 0.545714 
r69 74 84 0.0464898 
r70 73 82 0.0464898 
r71 73 74 0.0430769 
r72 68 69 0.79 
r73 63 64 1.745 
r74 61 63 0.0451268 
r75 61 62 0.124211 
r76 60 80 0.0321994 
r77 59 68 0.0447517 
r78 59 60 0.647059 
r79 58 62 0.0451268 
r80 57 81 0.0448391 
r81 57 58 5.505 
r82 53 107 0.02 
r83 53 54 2.2575 
r84 52 80 0.010241 
r85 52 54 1.98 
r86 184 26 0.00195122 
r87 26 147 3 
r88 8 184 0.0536585 
r89 8 144 3 
.ends

.subckt PM_PC3T03%U28_ngate3 51 59 82 88
c0 123 0 14.3563f
c1 117 0 0.533727f
c2 116 0 1.48692f
c3 112 0 0.197182f
c4 110 0 0.295048f
c5 109 0 0.08279f
c6 108 0 0.0753649f
c7 107 0 8.38154f
c8 106 0 4.85393f
c9 100 0 2.6883f
c10 90 0 0.606155f
c11 89 0 0.166949f
c12 88 0 3.04886f
c13 82 0 3.04886f
c14 59 0 0.00729216f
c15 51 0 1.71074f
c16 44 0 3.22339f
c17 26 0 0.425446f
r18 120 123 1.17067 
r19 114 116 0.127062 
r20 114 130 1.5 
r21 120 112 6 
r22 110 112 6 
r23 109 110 0.231 
r24 107 116 0.0867997 
r25 107 108 8.76 
r26 106 109 0.0446983 
r27 105 108 0.0446983 
r28 105 106 5.562 
r29 117 97 0.00142683 
r30 94 117 0.0277856 
r31 90 117 5.05882 
r32 89 117 5.05882 
r33 84 90 3.88985 
r34 84 88 183.96 
r35 79 89 3.88985 
r36 79 82 183.96 
r37 51 48 1.59714 
r38 100 48 6 
r39 45 103 3.29429 
r40 100 45 0.874286 
r41 45 123 6 
r42 44 59 4.93143 
r43 103 44 6 
r44 130 26 0.00097561 
r45 26 97 3 
r46 8 130 0.0546341 
r47 8 94 3 
.ends

.subckt PM_PC3T03%U28_U72_pgate 22 41 72 91 155 157 168 179 211 217 222
c0 319 0 0.414046f
c1 317 0 0.306758f
c2 315 0 0.307529f
c3 314 0 0.307529f
c4 312 0 3.64977f
c5 310 0 0.223302f
c6 308 0 0.150322f
c7 306 0 16.0091f
c8 298 0 3.36889f
c9 284 0 6.02904f
c10 282 0 0.86625f
c11 281 0 0.0958576f
c12 280 0 0.216096f
c13 274 0 2.00963f
c14 272 0 0.0612176f
c15 271 0 0.0386035f
c16 270 0 6.16584f
c17 261 0 0.730208f
c18 254 0 0.147587f
c19 253 0 0.056474f
c20 248 0 0.0940331f
c21 244 0 0.0235939f
c22 243 0 0.0407593f
c23 241 0 0.0713978f
c24 238 0 2.25043f
c25 236 0 0.0601858f
c26 235 0 0.337715f
c27 229 0 0.0511886f
c28 226 0 0.326214f
c29 222 0 1.509f
c30 217 0 0.973496f
c31 215 0 0.0409969f
c32 214 0 0.375657f
c33 213 0 0.163685f
c34 211 0 1.51663f
c35 179 0 2.47465f
c36 173 0 1.54819f
c37 168 0 2.26481f
c38 166 0 0.0527619f
c39 165 0 0.401099f
c40 153 0 5.10206f
c41 144 0 4.80814f
c42 143 0 0.371977f
c43 137 0 0.405378f
c44 131 0 0.370539f
c45 85 0 0.309607f
c46 76 0 4.91766f
c47 74 0 0.105999f
c48 66 0 0.309607f
c49 57 0 4.91903f
c50 55 0 0.105999f
c51 35 0 0.309607f
c52 26 0 4.91903f
c53 24 0 0.105999f
c54 16 0 3.714f
c55 7 0 4.99591f
c56 5 0 0.129901f
r57 318 319 0.383902 
r58 317 318 0.32439 
r59 314 315 0.32839 
r60 312 314 0.379902 
r61 306 308 6 
r62 287 289 6 
r63 284 287 8.70933 
r64 284 308 6 
r65 280 289 0.0112 
r66 280 281 0.0514821 
r67 276 317 0.219512 
r68 315 276 0.16039 
r69 274 276 1.2 
r70 273 282 0.0142174 
r71 273 274 0.462439 
r72 271 282 0.0327344 
r73 271 272 0.149677 
r74 270 272 0.0446983 
r75 281 270 10.3252 
r76 266 310 6 
r77 263 306 3.36774 
r78 303 263 11.3948 
r79 261 263 6 
r80 261 266 1.15143 
r81 253 254 0.12 
r82 250 253 0.0451268 
r83 246 310 0.218571 
r84 245 248 0.0785714 
r85 245 246 0.02 
r86 237 248 0.02 
r87 237 238 3.30571 
r88 235 238 0.0461631 
r89 235 236 0.30026 
r90 230 244 0.0327921 
r91 229 244 0.0327921 
r92 228 236 0.0449793 
r93 228 229 0.0967164 
r94 227 243 0.0343218 
r95 226 244 0.00972501 
r96 226 227 0.514286 
r97 221 243 0.00843222 
r98 221 222 1.59625 
r99 216 241 0.0200702 
r100 216 217 1.20375 
r101 214 243 0.0343218 
r102 214 215 0.614603 
r103 213 241 0.0982456 
r104 212 215 0.0452323 
r105 212 213 0.395385 
r106 230 211 1.59625 
r107 179 176 2.3375 
r108 254 176 6 
r109 250 173 2.67 
r110 173 303 6 
r111 172 179 2.0425 
r112 167 168 2.0425 
r113 166 172 0.0446983 
r114 165 167 0.0446983 
r115 165 166 0.51 
r116 153 157 394.95 
r117 319 152 2.81176 
r118 152 153 1.5 
r119 144 155 394.95 
r120 143 318 2.74706 
r121 143 144 1.5 
r122 141 157 394.95 
r123 140 141 1.5 
r124 137 140 2.78235 
r125 134 137 0.38439 
r126 132 155 394.95 
r127 131 134 2.74706 
r128 131 132 1.5 
r129 85 134 0.323902 
r130 298 85 0.219512 
r131 77 317 2.07647 
r132 76 91 394.95 
r133 76 77 4.2601 
r134 75 85 2.07647 
r135 74 91 394.95 
r136 74 75 4.2601 
r137 66 298 0.160878 
r138 58 315 2.07647 
r139 57 72 394.95 
r140 57 58 4.2601 
r141 56 66 2.07647 
r142 55 72 394.95 
r143 55 56 4.2601 
r144 35 66 0.327902 
r145 27 314 2.07647 
r146 26 41 394.95 
r147 26 27 4.2601 
r148 25 35 2.07647 
r149 24 41 394.95 
r150 24 25 4.2601 
r151 16 35 0.38039 
r152 8 312 2.07647 
r153 7 22 394.95 
r154 7 8 4.2601 
r155 6 16 2.07647 
r156 5 22 394.95 
r157 5 6 4.2601 
.ends

.subckt PM_PC3T03%U15_pgate 31 38 43 50 57 68 73 113 118 141 187 193
c0 208 0 2.86346f
c1 197 0 1.20506f
c2 193 0 0.00447021f
c3 187 0 0.00572036f
c4 176 0 15.9366f
c5 174 0 0.992437f
c6 171 0 0.785498f
c7 169 0 1.50192f
c8 165 0 1.49663f
c9 158 0 0.0544354f
c10 157 0 0.281237f
c11 151 0 0.994811f
c12 146 0 1.94526f
c13 143 0 0.0565315f
c14 142 0 0.188493f
c15 141 0 0.00280858f
c16 118 0 0.00894832f
c17 113 0 0.00924659f
c18 99 0 2.78611f
c19 96 0 1.17019f
c20 94 0 0.712525f
c21 93 0 2.5367f
c22 89 0 0.302727f
c23 85 0 0.028277f
c24 83 0 0.028277f
c25 81 0 0.0289103f
c26 80 0 0.232744f
c27 79 0 0.028277f
c28 78 0 0.0339862f
c29 73 0 1.45777f
c30 68 0 1.39196f
c31 65 0 0.344617f
c32 63 0 0.102424f
c33 61 0 0.45127f
c34 57 0 1.4976f
c35 54 0 0.287058f
c36 50 0 2.85917f
c37 48 0 0.0465352f
c38 47 0 0.286924f
c39 43 0 2.37698f
c40 38 0 2.22602f
c41 36 0 0.0505388f
c42 35 0 0.320635f
c43 31 0 2.20533f
r44 204 205 0.336 
r45 202 204 6.09333 
r46 179 208 6 
r47 205 176 4.42667 
r48 174 176 6 
r49 174 179 1.65857 
r50 171 197 6 
r51 169 193 1.43125 
r52 167 169 6 
r53 167 171 0.518356 
r54 165 187 1.4325 
r55 163 165 6 
r56 163 167 0.516164 
r57 157 159 0.0446983 
r58 157 158 0.2925 
r59 150 158 0.0446983 
r60 150 151 1.63125 
r61 145 208 3.87429 
r62 144 197 0.11625 
r63 143 144 0.0448998 
r64 142 145 0.0456127 
r65 142 143 0.183333 
r66 197 141 1.4375 
r67 99 118 4.4175 
r68 161 99 6 
r69 96 161 1.405 
r70 159 96 0.58875 
r71 96 205 6 
r72 94 155 1.395 
r73 94 204 6 
r74 93 113 4.545 
r75 155 93 6 
r76 151 91 6 
r77 146 89 6 
r78 146 86 2.26 
r79 86 202 6 
r80 84 118 1.3875 
r81 84 85 0.00880368 
r82 82 113 1.27 
r83 82 83 0.00880368 
r84 80 91 0.116143 
r85 80 81 0.0327397 
r86 77 89 0.215 
r87 77 78 0.0302706 
r88 72 73 1.3875 
r89 67 68 1.3625 
r90 66 85 0.0338756 
r91 65 72 0.0446983 
r92 65 66 0.51 
r93 64 83 0.0338756 
r94 63 85 0.0338756 
r95 63 64 0.2325 
r96 62 81 0.00977027 
r97 61 67 0.0448998 
r98 61 62 0.428889 
r99 56 81 0.0327397 
r100 56 57 1.3625 
r101 55 79 0.0338756 
r102 54 83 0.0338756 
r103 54 55 0.51 
r104 49 79 0.00880368 
r105 49 50 2.485 
r106 47 79 0.0338756 
r107 47 48 0.51 
r108 42 48 0.0446983 
r109 42 43 2.485 
r110 37 78 0.0302706 
r111 37 38 2.06 
r112 35 78 0.0119838 
r113 35 36 0.585714 
r114 30 36 0.0449572 
r115 30 31 2.06 
.ends

.subckt PM_PC3T03%U28_U71_UN_P_TOP 18 37 68 87 148 150 157 166
c0 285 0 0.264557f
c1 267 0 0.293407f
c2 266 0 0.309998f
c3 265 0 0.309607f
c4 261 0 0.309607f
c5 260 0 0.309862f
c6 258 0 3.67832f
c7 256 0 15.9637f
c8 254 0 0.227062f
c9 246 0 0.471051f
c10 243 0 0.34299f
c11 241 0 5.58649f
c12 238 0 4.29195f
c13 236 0 4.8543f
c14 230 0 0.157078f
c15 227 0 0.315763f
c16 219 0 4.94111f
c17 216 0 1.29696f
c18 210 0 2.37968f
c19 206 0 0.834525f
c20 184 0 0.710436f