*  -------------------------------------- *
* Defining the default unit for both length and area
*.SCALE meter
*  -------------------------------------- *
.option scale=1

.SUBCKT PAH_18_NA PAD VDDO VSSO VSS VDD PADR
*.PININFO PAD:B VDDO:B VSSO:B VSS:B VDD:B PADR:B
M0 VSSO 8 7 VSSO N L=1.8e-07 W=2e-05 rf_flag=0
M1 PAD 7 VSSO VSSO N L=2.5e-07 W=2.4e-05 rf_flag=0
M2 VSSO 7 PAD VSSO N L=2.5e-07 W=2.4e-05 rf_flag=0
M3 PAD 7 VSSO VSSO N L=2.5e-07 W=2.4e-05 rf_flag=0
M4 VSSO 7 PAD VSSO N L=2.5e-07 W=2.4e-05 rf_flag=0
M5 PAD 7 VSSO VSSO N L=2.5e-07 W=2.4e-05 rf_flag=0
M6 VSSO 7 PAD VSSO N L=2.5e-07 W=2.4e-05 rf_flag=0
M7 PAD 7 VSSO VSSO N L=2.5e-07 W=2.4e-05 rf_flag=0
M8 VSSO 7 PAD VSSO N L=2.5e-07 W=2.4e-05 rf_flag=0
M9 PAD 7 VSSO VSSO N L=2.5e-07 W=2.4e-05 rf_flag=0
M10 VSSO 7 PAD VSSO N L=2.5e-07 W=2.4e-05 rf_flag=0
M11 PAD 7 VSSO VSSO N L=2.5e-07 W=2.4e-05 rf_flag=0
M12 VSSO 7 PAD VSSO N L=2.5e-07 W=2.4e-05 rf_flag=0
M13 PAD 7 VSSO VSSO N L=2.5e-07 W=2.4e-05 rf_flag=0
M14 VSSO 7 PAD VSSO N L=2.5e-07 W=2.4e-05 rf_flag=0
M15 PAD 7 VSSO VSSO N L=2.5e-07 W=2.4e-05 rf_flag=0
M16 VSSO 7 PAD VSSO N L=2.5e-07 W=2.4e-05 rf_flag=0
M17 VSSO 9 PADR VSSO N L=1.8e-07 W=5e-06 rf_flag=0
M18 PADR 9 VSSO VSSO N L=1.8e-07 W=5e-06 rf_flag=0
M19 VSSO 9 PADR VSSO N L=1.8e-07 W=5e-06 rf_flag=0
M20 PADR 9 VSSO VSSO N L=1.8e-07 W=5e-06 rf_flag=0
M21 VSSO 9 PADR VSSO N L=1.8e-07 W=5e-06 rf_flag=0
M22 PADR 9 VSSO VSSO N L=1.8e-07 W=5e-06 rf_flag=0
M23 VSSO 9 PADR VSSO N L=1.8e-07 W=5e-06 rf_flag=0
M24 PADR 9 VSSO VSSO N L=1.8e-07 W=5e-06 rf_flag=0
M25 PAD 15 VSS VSS N L=2.5e-07 W=2.4e-05 rf_flag=0
M26 VSS 15 PAD VSS N L=2.5e-07 W=2.4e-05 rf_flag=0
M27 PAD 15 VSS VSS N L=2.5e-07 W=2.4e-05 rf_flag=0
M28 VSS 15 PAD VSS N L=2.5e-07 W=2.4e-05 rf_flag=0
M29 PAD 15 VSS VSS N L=2.5e-07 W=2.4e-05 rf_flag=0
M30 VSS 15 PAD VSS N L=2.5e-07 W=2.4e-05 rf_flag=0
M31 PAD 15 VSS VSS N L=2.5e-07 W=2.4e-05 rf_flag=0
M32 VSS 15 PAD VSS N L=2.5e-07 W=2.4e-05 rf_flag=0
M33 PAD 15 VSS VSS N L=2.5e-07 W=2.4e-05 rf_flag=0
M34 VSS 15 PAD VSS N L=2.5e-07 W=2.4e-05 rf_flag=0
M35 PAD 15 VSS VSS N L=2.5e-07 W=2.4e-05 rf_flag=0
M36 VSS 15 PAD VSS N L=2.5e-07 W=2.4e-05 rf_flag=0
M37 PAD 15 VSS VSS N L=2.5e-07 W=2.4e-05 rf_flag=0
M38 VSS 15 PAD VSS N L=2.5e-07 W=2.4e-05 rf_flag=0
M39 PAD 15 VSS VSS N L=2.5e-07 W=2.4e-05 rf_flag=0
M40 VSS 15 PAD VSS N L=2.5e-07 W=2.4e-05 rf_flag=0
M41 VSS 14 15 VSS N L=1.8e-07 W=2e-05 rf_flag=0
M42 VMAX VMAX VDDO VMAX P L=1.8e-07 W=1e-05 rf_flag=0
M43 6 10 VMAX VMAX P L=1.8e-07 W=1e-05 rf_flag=0
M44 VMAX 10 6 VMAX P L=1.8e-07 W=1e-05 rf_flag=0
M45 6 10 VMAX VMAX P L=1.8e-07 W=1e-05 rf_flag=0
M46 PAD 6 VDDO VMAX P L=2.5e-07 W=2.08e-05 rf_flag=0
M47 VDDO 6 PAD VMAX P L=2.5e-07 W=2.08e-05 rf_flag=0
M48 PAD 6 VDDO VMAX P L=2.5e-07 W=2.08e-05 rf_flag=0
M49 VDDO 6 PAD VMAX P L=2.5e-07 W=2.08e-05 rf_flag=0
M50 PAD 6 VDDO VMAX P L=2.5e-07 W=2.08e-05 rf_flag=0
M51 VDDO 6 PAD VMAX P L=2.5e-07 W=2.08e-05 rf_flag=0
M52 PAD 6 VDDO VMAX P L=2.5e-07 W=2.08e-05 rf_flag=0
M53 VDDO 6 PAD VMAX P L=2.5e-07 W=2.08e-05 rf_flag=0
M54 PAD 6 VDDO VMAX P L=2.5e-07 W=2.08e-05 rf_flag=0
M55 VDDO 6 PAD VMAX P L=2.5e-07 W=2.08e-05 rf_flag=0
M56 PAD 6 VDDO VMAX P L=2.5e-07 W=2.08e-05 rf_flag=0
M57 VDDO 6 PAD VMAX P L=2.5e-07 W=2.08e-05 rf_flag=0
M58 PAD 6 VDDO VMAX P L=2.5e-07 W=2.08e-05 rf_flag=0
M59 VDDO 6 PAD VMAX P L=2.5e-07 W=2.08e-05 rf_flag=0
M60 PAD 6 VDDO VMAX P L=2.5e-07 W=2.08e-05 rf_flag=0
M61 VDDO 6 PAD VMAX P L=2.5e-07 W=2.08e-05 rf_flag=0
M62 PAD 6 VDDO VMAX P L=2.5e-07 W=2.08e-05 rf_flag=0
M63 VDDO 6 PAD VMAX P L=2.5e-07 W=2.08e-05 rf_flag=0
M64 PAD 6 VDDO VMAX P L=2.5e-07 W=2.08e-05 rf_flag=0
M65 VDDO 6 PAD VMAX P L=2.5e-07 W=2.08e-05 rf_flag=0
M66 VMAX PADR VDDO VMAX P L=1.8e-07 W=1e-05 rf_flag=0
M67 VDDO PADR VMAX VMAX P L=1.8e-07 W=1e-05 rf_flag=0
M68 VMAX PADR VDDO VMAX P L=1.8e-07 W=1e-05 rf_flag=0
M69 PADR 12 VMAX VMAX P L=1.8e-07 W=1e-05 rf_flag=0
M70 VMAX 12 PADR VMAX P L=1.8e-07 W=1e-05 rf_flag=0
M71 PADR 12 VMAX VMAX P L=1.8e-07 W=1e-05 rf_flag=0
R72 VSSO 9 1016.12 L=7e-06 W=3e-06 postlayout=1 $SUB=VSSO $[RE3]
R73 VSSO 10 1016.12 L=7e-06 W=3e-06 postlayout=1 $SUB=VSSO $[RE3]
R74 12 VDDO 1016.12 L=7e-06 W=3e-06 postlayout=1 $SUB=VSSO $[RE3]
R75 PADR PAD 1090.5 L=1.3e-05 W=5e-06 postlayout=1 $SUB=VSSO $[RE3]
R76 8 VMAX 1016.12 L=7e-06 W=3e-06 postlayout=1 $SUB=VSSO $[RE3]
R77 14 VMAX 1016.12 L=7e-06 W=3e-06 postlayout=1 $SUB=VSS $[RE3]
D78 VSS VMAX dwn2psub AREA=2.42956e-09 PJ=0.00022567
D79 VSSO VDDO dwn2psub AREA=3.11153e-09 PJ=0.00161948
D80 VSSO VDDO dwn2psub AREA=3.11153e-09 PJ=0.00161948
D81 VSS VDDO dwn2psub AREA=3.11153e-09 PJ=0.00161948
D82 VSS VDDO dwn2psub AREA=3.11153e-09 PJ=0.00161948
D83 VSS VDDO dwn2psub AREA=3.11153e-09 PJ=0.00161948
D84 VSSO VDDO dwn2psub AREA=3.11153e-09 PJ=0.00161948
D85 VSS VDDO dwn2psub AREA=3.11153e-09 PJ=0.00161948
D86 VSSO VSSO dwn2psub AREA=6.3709e-10 PJ=0.00010544
D87 VSS VSS dwn2psub AREA=6.3709e-10 PJ=0.00010544
D88 VSS VSSO dpnwcpl18 AREA=2.242e-11 PJ=3.25314e-05 nf=1
D89 VSS VSSO dpnwcpl18 AREA=2.242e-11 PJ=3.25314e-05 nf=1
D90 VSS VSSO dpnwcpl18 AREA=2.242e-11 PJ=3.25314e-05 nf=1
D91 VSS VSSO dpnwcpl18 AREA=2.242e-11 PJ=3.25314e-05 nf=1
D92 VSS VSSO dpnwcpl18 AREA=2.242e-11 PJ=3.25314e-05 nf=1
D93 VSS VSSO dpnwcpl18 AREA=2.242e-11 PJ=3.25314e-05 nf=1
D94 VSS VSSO dpnwcpl18 AREA=2.242e-11 PJ=3.25314e-05 nf=1
D95 VSSO VSS dpnwcpl18 AREA=2.242e-11 PJ=3.25314e-05 nf=1
D96 VSSO VSS dpnwcpl18 AREA=2.242e-11 PJ=3.25314e-05 nf=1
D97 VSSO VSS dpnwcpl18 AREA=2.242e-11 PJ=3.25314e-05 nf=1
D98 VSSO VSS dpnwcpl18 AREA=2.242e-11 PJ=3.25314e-05 nf=1
D99 VSSO VSS dpnwcpl18 AREA=2.242e-11 PJ=3.25314e-05 nf=1
D100 VSSO VSS dpnwcpl18 AREA=2.242e-11 PJ=3.25314e-05 nf=1
D101 VSSO VSS dpnwcpl18 AREA=2.242e-11 PJ=3.25314e-05 nf=1
.ENDS

.SUBCKT PAH_50_NA PAD VDDO VSSO VSS VDD PADR
*.PININFO PAD:B VDDO:B VSSO:B VSS:B VDD:B PADR:B
M0 VSSO 9 8 VSSO N5 L=6e-07 W=2e-05 rf_flag=0
M1 PAD 8 VSSO VSSO N5 L=6e-07 W=2.4e-05 rf_flag=0
M2 VSSO 8 PAD VSSO N5 L=6e-07 W=2.4e-05 rf_flag=0
M3 PAD 8 VSSO VSSO N5 L=6e-07 W=2.4e-05 rf_flag=0
M4 VSSO 8 PAD VSSO N5 L=6e-07 W=2.4e-05 rf_flag=0
M5 PAD 8 VSSO VSSO N5 L=6e-07 W=2.4e-05 rf_flag=0
M6 VSSO 8 PAD VSSO N5 L=6e-07 W=2.4e-05 rf_flag=0
M7 PAD 8 VSSO VSSO N5 L=6e-07 W=2.4e-05 rf_flag=0
M8 VSSO 8 PAD VSSO N5 L=6e-07 W=2.4e-05 rf_flag=0
M9 PAD 8 VSSO VSSO N5 L=6e-07 W=2.4e-05 rf_flag=0
M10 VSSO 8 PAD VSSO N5 L=6e-07 W=2.4e-05 rf_flag=0
M11 PAD 8 VSSO VSSO N5 L=6e-07 W=2.4e-05 rf_flag=0
M12 VSSO 8 PAD VSSO N5 L=6e-07 W=2.4e-05 rf_flag=0
M13 PAD 8 VSSO VSSO N5 L=6e-07 W=2.4e-05 rf_flag=0
M14 VSSO 8 PAD VSSO N5 L=6e-07 W=2.4e-05 rf_flag=0
M15 PAD 8 VSSO VSSO N5 L=6e-07 W=2.4e-05 rf_flag=0
M16 VSSO 8 PAD VSSO N5 L=6e-07 W=2.4e-05 rf_flag=0
M17 VSSO 10 PADR VSSO N5 L=6e-07 W=5e-06 rf_flag=0
M18 PADR 10 VSSO VSSO N5 L=6e-07 W=5e-06 rf_flag=0
M19 VSSO 10 PADR VSSO N5 L=6e-07 W=5e-06 rf_flag=0
M20 PADR 10 VSSO VSSO N5 L=6e-07 W=5e-06 rf_flag=0
M21 VSSO 10 PADR VSSO N5 L=6e-07 W=5e-06 rf_flag=0
M22 PADR 10 VSSO VSSO N5 L=6e-07 W=5e-06 rf_flag=0
M23 VSSO 10 PADR VSSO N5 L=6e-07 W=5e-06 rf_flag=0
M24 PADR 10 VSSO VSSO N5 L=6e-07 W=5e-06 rf_flag=0
M25 PAD 15 VSS VSS N5 L=6e-07 W=2.4e-05 rf_flag=0
M26 VSS 15 PAD VSS N5 L=6e-07 W=2.4e-05 rf_flag=0
M27 PAD 15 VSS VSS N5 L=6e-07 W=2.4e-05 rf_flag=0
M28 VSS 15 PAD VSS N5 L=6e-07 W=2.4e-05 rf_flag=0
M29 PAD 15 VSS VSS N5 L=6e-07 W=2.4e-05 rf_flag=0
M30 VSS 15 PAD VSS N5 L=6e-07 W=2.4e-05 rf_flag=0
M31 PAD 15 VSS VSS N5 L=6e-07 W=2.4e-05 rf_flag=0
M32 VSS 15 PAD VSS N5 L=6e-07 W=2.4e-05 rf_flag=0
M33 PAD 15 VSS VSS N5 L=6e-07 W=2.4e-05 rf_flag=0
M34 VSS 15 PAD VSS N5 L=6e-07 W=2.4e-05 rf_flag=0
M35 PAD 15 VSS VSS N5 L=6e-07 W=2.4e-05 rf_flag=0
M36 VSS 15 PAD VSS N5 L=6e-07 W=2.4e-05 rf_flag=0
M37 PAD 15 VSS VSS N5 L=6e-07 W=2.4e-05 rf_flag=0
M38 VSS 15 PAD VSS N5 L=6e-07 W=2.4e-05 rf_flag=0
M39 PAD 15 VSS VSS N5 L=6e-07 W=2.4e-05 rf_flag=0
M40 VSS 15 PAD VSS N5 L=6e-07 W=2.4e-05 rf_flag=0
M41 VSS 14 15 VSS N5 L=6e-07 W=2e-05 rf_flag=0
M42 VMAX VMAX VDDO VMAX P5 L=5e-07 W=1e-05 rf_flag=0
M43 7 6 VMAX VMAX P5 L=5e-07 W=1e-05 rf_flag=0
M44 VMAX 6 7 VMAX P5 L=5e-07 W=1e-05 rf_flag=0
M45 7 6 VMAX VMAX P5 L=5e-07 W=1e-05 rf_flag=0
M46 PAD 7 VDDO VMAX P5 L=5e-07 W=2.08e-05 rf_flag=0
M47 VDDO 7 PAD VMAX P5 L=5e-07 W=2.08e-05 rf_flag=0
M48 PAD 7 VDDO VMAX P5 L=5e-07 W=2.08e-05 rf_flag=0
M49 VDDO 7 PAD VMAX P5 L=5e-07 W=2.08e-05 rf_flag=0
M50 PAD 7 VDDO VMAX P5 L=5e-07 W=2.08e-05 rf_flag=0
M51 VDDO 7 PAD VMAX P5 L=5e-07 W=2.08e-05 rf_flag=0
M52 PAD 7 VDDO VMAX P5 L=5e-07 W=2.08e-05 rf_flag=0
M53 VDDO 7 PAD VMAX P5 L=5e-07 W=2.08e-05 rf_flag=0
M54 PAD 7 VDDO VMAX P5 L=5e-07 W=2.08e-05 rf_flag=0
M55 VDDO 7 PAD VMAX P5 L=5e-07 W=2.08e-05 rf_flag=0
M56 PAD 7 VDDO VMAX P5 L=5e-07 W=2.08e-05 rf_flag=0
M57 VDDO 7 PAD VMAX P5 L=5e-07 W=2.08e-05 rf_flag=0
M58 PAD 7 VDDO VMAX P5 L=5e-07 W=2.08e-05 rf_flag=0
M59 VDDO 7 PAD VMAX P5 L=5e-07 W=2.08e-05 rf_flag=0
M60 PAD 7 VDDO VMAX P5 L=5e-07 W=2.08e-05 rf_flag=0
M61 VDDO 7 PAD VMAX P5 L=5e-07 W=2.08e-05 rf_flag=0
M62 PAD 7 VDDO VMAX P5 L=5e-07 W=2.08e-05 rf_flag=0
M63 VDDO 7 PAD VMAX P5 L=5e-07 W=2.08e-05 rf_flag=0
M64 PAD 7 VDDO VMAX P5 L=5e-07 W=2.08e-05 rf_flag=0
M65 VDDO 7 PAD VMAX P5 L=5e-07 W=2.08e-05 rf_flag=0
M66 VMAX PADR VDDO VMAX P5 L=5e-07 W=1e-05 rf_flag=0
M67 VDDO PADR VMAX VMAX P5 L=5e-07 W=1e-05 rf_flag=0
M68 VMAX PADR VDDO VMAX P5 L=5e-07 W=1e-05 rf_flag=0
M69 PADR 13 VMAX VMAX P5 L=5e-07 W=1e-05 rf_flag=0
M70 VMAX 13 PADR VMAX P5 L=5e-07 W=1e-05 rf_flag=0
M71 PADR 13 VMAX VMAX P5 L=5e-07 W=1e-05 rf_flag=0
R72 VSSO 10 1016.12 L=7e-06 W=3e-06 postlayout=1 $SUB=VSSO $[RE3]
R73 VSSO 6 1016.12 L=7e-06 W=3e-06 postlayout=1 $SUB=VSSO $[RE3]
R74 13 VDDO 1016.12 L=7e-06 W=3e-06 postlayout=1 $SUB=VSSO $[RE3]
R75 PADR PAD 1090.5 L=1.3e-05 W=5e-06 postlayout=1 $SUB=VSSO $[RE3]
R76 9 VMAX 1016.12 L=7e-06 W=3e-06 postlayout=1 $SUB=VSSO $[RE3]
R77 14 VMAX 1016.12 L=7e-06 W=3e-06 postlayout=1 $SUB=VSS $[RE3]
D78 VSS VMAX dwn2psub AREA=2.42956e-09 PJ=0.00022567
D79 VSSO VDDO dwn2psub AREA=3.11153e-09 PJ=0.00161948
D80 VSSO VDDO dwn2psub AREA=3.11153e-09 PJ=0.00161948
D81 VSS VDDO dwn2psub AREA=3.11153e-09 PJ=0.00161948
D82 VSS VDDO dwn2psub AREA=3.11153e-09 PJ=0.00161948
D83 VSS VDDO dwn2psub AREA=3.11153e-09 PJ=0.00161948
D84 VSSO VDDO dwn2psub AREA=3.11153e-09 PJ=0.00161948
D85 VSS VDDO dwn2psub AREA=3.11153e-09 PJ=0.00161948
D86 VSSO VSSO dwn2psub AREA=6.3709e-10 PJ=0.00010544
D87 VSS VSS dwn2psub AREA=6.3709e-10 PJ=0.00010544
D88 VSS VSSO dpnwcpl5 AREA=2.242e-11 PJ=3.25314e-05 nf=1
D89 VSS VSSO dpnwcpl5 AREA=2.242e-11 PJ=3.25314e-05 nf=1
D90 VSS VSSO dpnwcpl5 AREA=2.242e-11 PJ=3.25314e-05 nf=1
D91 VSS VSSO dpnwcpl5 AREA=2.242e-11 PJ=3.25314e-05 nf=1
D92 VSS VSSO dpnwcpl5 AREA=2.242e-11 PJ=3.25314e-05 nf=1
D93 VSS VSSO dpnwcpl5 AREA=2.242e-11 PJ=3.25314e-05 nf=1
D94 VSS VSSO dpnwcpl5 AREA=2.242e-11 PJ=3.25314e-05 nf=1
D95 VSSO VSS dpnwcpl5 AREA=2.242e-11 PJ=3.25314e-05 nf=1
D96 VSSO VSS dpnwcpl5 AREA=2.242e-11 PJ=3.25314e-05 nf=1
D97 VSSO VSS dpnwcpl5 AREA=2.242e-11 PJ=3.25314e-05 nf=1
D98 VSSO VSS dpnwcpl5 AREA=2.242e-11 PJ=3.25314e-05 nf=1
D99 VSSO VSS dpnwcpl5 AREA=2.242e-11 PJ=3.25314e-05 nf=1
D100 VSSO VSS dpnwcpl5 AREA=2.242e-11 PJ=3.25314e-05 nf=1
D101 VSSO VSS dpnwcpl5 AREA=2.242e-11 PJ=3.25314e-05 nf=1
.ENDS

.SUBCKT PAL_NA_18 PAD VDDO VSSO VSS VDD PADR
*.PININFO PAD:B VDDO:B VSSO:B VSS:B VDD:B PADR:B
M0 PAD 6 VSS VSS N L=2.5e-07 W=2.4e-05 rf_flag=0
M1 VSS 6 PAD VSS N L=2.5e-07 W=2.4e-05 rf_flag=0
M2 PAD 6 VSS VSS N L=2.5e-07 W=2.4e-05 rf_flag=0
M3 VSS 6 PAD VSS N L=2.5e-07 W=2.4e-05 rf_flag=0
M4 PAD 6 VSS VSS N L=2.5e-07 W=2.4e-05 rf_flag=0
M5 VSS 6 PAD VSS N L=2.5e-07 W=2.4e-05 rf_flag=0
M6 PAD 6 VSS VSS N L=2.5e-07 W=2.4e-05 rf_flag=0
M7 VSS 6 PAD VSS N L=2.5e-07 W=2.4e-05 rf_flag=0
M8 PAD 6 VSS VSS N L=2.5e-07 W=2.4e-05 rf_flag=0
M9 VSS 6 PAD VSS N L=2.5e-07 W=2.4e-05 rf_flag=0
M10 PAD 6 VSS VSS N L=2.5e-07 W=2.4e-05 rf_flag=0
M11 VSS 6 PAD VSS N L=2.5e-07 W=2.4e-05 rf_flag=0
M12 PAD 6 VSS VSS N L=2.5e-07 W=2.4e-05 rf_flag=0
M13 VSS 6 PAD VSS N L=2.5e-07 W=2.4e-05 rf_flag=0
M14 PAD 6 VSS VSS N L=2.5e-07 W=2.4e-05 rf_flag=0
M15 VSS 6 PAD VSS N L=2.5e-07 W=2.4e-05 rf_flag=0
M16 VSS 7 6 VSS N L=1.8e-07 W=2e-05 rf_flag=0
M17 PADR 10 VSS VSS N L=2.5e-07 W=2e-05 rf_flag=0
M18 VSS 10 PADR VSS N L=2.5e-07 W=2e-05 rf_flag=0
M19 PAD 14 VSSO VSSO N L=2.5e-07 W=2.4e-05 rf_flag=0
M20 VSSO 14 PAD VSSO N L=2.5e-07 W=2.4e-05 rf_flag=0
M21 PAD 14 VSSO VSSO N L=2.5e-07 W=2.4e-05 rf_flag=0
M22 VSSO 14 PAD VSSO N L=2.5e-07 W=2.4e-05 rf_flag=0
M23 PAD 14 VSSO VSSO N L=2.5e-07 W=2.4e-05 rf_flag=0
M24 VSSO 14 PAD VSSO N L=2.5e-07 W=2.4e-05 rf_flag=0
M25 PAD 14 VSSO VSSO N L=2.5e-07 W=2.4e-05 rf_flag=0
M26 VSSO 14 PAD VSSO N L=2.5e-07 W=2.4e-05 rf_flag=0
M27 PAD 14 VSSO VSSO N L=2.5e-07 W=2.4e-05 rf_flag=0
M28 VSSO 14 PAD VSSO N L=2.5e-07 W=2.4e-05 rf_flag=0
M29 PAD 14 VSSO VSSO N L=2.5e-07 W=2.4e-05 rf_flag=0
M30 VSSO 14 PAD VSSO N L=2.5e-07 W=2.4e-05 rf_flag=0
M31 PAD 14 VSSO VSSO N L=2.5e-07 W=2.4e-05 rf_flag=0
M32 VSSO 14 PAD VSSO N L=2.5e-07 W=2.4e-05 rf_flag=0
M33 PAD 14 VSSO VSSO N L=2.5e-07 W=2.4e-05 rf_flag=0
M34 VSSO 14 PAD VSSO N L=2.5e-07 W=2.4e-05 rf_flag=0
M35 VSSO 12 14 VSSO N L=1.8e-07 W=2e-05 rf_flag=0
M36 PAD 15 VDD VMAX P L=2.5e-07 W=2.08e-05 rf_flag=0
M37 VDD 15 PAD VMAX P L=2.5e-07 W=2.08e-05 rf_flag=0
M38 PAD 15 VDD VMAX P L=2.5e-07 W=2.08e-05 rf_flag=0
M39 VDD 15 PAD VMAX P L=2.5e-07 W=2.08e-05 rf_flag=0
M40 PAD 15 VDD VMAX P L=2.5e-07 W=2.08e-05 rf_flag=0
M41 VDD 15 PAD VMAX P L=2.5e-07 W=2.08e-05 rf_flag=0
M42 PAD 15 VDD VMAX P L=2.5e-07 W=2.08e-05 rf_flag=0
M43 VDD 15 PAD VMAX P L=2.5e-07 W=2.08e-05 rf_flag=0
M44 PAD 15 VDD VMAX P L=2.5e-07 W=2.08e-05 rf_flag=0
M45 VDD 15 PAD VMAX P L=2.5e-07 W=2.08e-05 rf_flag=0
M46 PAD 15 VDD VMAX P L=2.5e-07 W=2.08e-05 rf_flag=0
M47 VDD 15 PAD VMAX P L=2.5e-07 W=2.08e-05 rf_flag=0
M48 PAD 15 VDD VMAX P L=2.5e-07 W=2.08e-05 rf_flag=0
M49 VDD 15 PAD VMAX P L=2.5e-07 W=2.08e-05 rf_flag=0
M50 PAD 15 VDD VMAX P L=2.5e-07 W=2.08e-05 rf_flag=0
M51 VDD 15 PAD VMAX P L=2.5e-07 W=2.08e-05 rf_flag=0
M52 PAD 15 VDD VMAX P L=2.5e-07 W=2.08e-05 rf_flag=0
M53 VDD 15 PAD VMAX P L=2.5e-07 W=2.08e-05 rf_flag=0
M54 PAD 15 VDD VMAX P L=2.5e-07 W=2.08e-05 rf_flag=0
M55 VDD 15 PAD VMAX P L=2.5e-07 W=2.08e-05 rf_flag=0
M56 PADR 13 VMAX VMAX P L=1.8e-07 W=1.5e-05 rf_flag=0
M57 VMAX 13 PADR VMAX P L=1.8e-07 W=1.5e-05 rf_flag=0
M58 VDD PADR VMAX VMAX P L=1.8e-07 W=1.5e-05 rf_flag=0
M59 VMAX PADR VDD VMAX P L=1.8e-07 W=1.5e-05 rf_flag=0
M60 15 9 VMAX VMAX P L=1.8e-07 W=1.5e-05 rf_flag=0
M61 VMAX 9 15 VMAX P L=1.8e-07 W=1.5e-05 rf_flag=0
M62 VMAX VMAX VDD VMAX P L=1.8e-07 W=1e-05 rf_flag=0
R63 7 VMAX 1016.12 L=7e-06 W=3e-06 postlayout=1 $SUB=VSS $[RE3]
R64 VSS 9 1016.12 L=7e-06 W=3e-06 postlayout=1 $SUB=VSS $[RE3]
R65 VSS 10 1016.12 L=7e-06 W=3e-06 postlayout=1 $SUB=VSS $[RE3]
R66 PADR PAD 1090.5 L=1.3e-05 W=5e-06 postlayout=1 $SUB=VSS $[RE3]
R67 12 VMAX 1016.12 L=7e-06 W=3e-06 postlayout=1 $SUB=VSSO $[RE3]
R68 VDD 13 1016.12 L=7e-06 W=3e-06 postlayout=1 $SUB=VSSO $[RE3]
D69 VSS VDD dwn2psub AREA=2.60522e-09 PJ=0.00149607
D70 VSSO VDD dwn2psub AREA=2.60522e-09 PJ=0.00149607
D71 VSS VDD dwn2psub AREA=2.60522e-09 PJ=0.00149607
D72 VSS VDD dwn2psub AREA=2.60522e-09 PJ=0.00149607
D73 VSSO VSS dwn2psub AREA=6.3709e-10 PJ=0.00010544
D74 VSS VSSO dwn2psub AREA=6.3709e-10 PJ=0.00010544
D75 VSSO VDD dwn2psub AREA=2.60522e-09 PJ=0.00149607
D76 VSSO VDD dwn2psub AREA=2.60522e-09 PJ=0.00149607
D77 VSS VMAX dwn2psub AREA=2.32217e-09 PJ=0.00021815
D78 VSS VDD dwn2psub AREA=2.60522e-09 PJ=0.00149607
D79 VSSO VSS dpnwcpl18 AREA=2.242e-11 PJ=3.25314e-05 nf=1
D80 VSSO VSS dpnwcpl18 AREA=2.242e-11 PJ=3.25314e-05 nf=1
D81 VSSO VSS dpnwcpl18 AREA=2.242e-11 PJ=3.25314e-05 nf=1
D82 VSSO VSS dpnwcpl18 AREA=2.242e-11 PJ=3.25314e-05 nf=1
D83 VSSO VSS dpnwcpl18 AREA=2.242e-11 PJ=3.25314e-05 nf=1
D84 VSSO VSS dpnwcpl18 AREA=2.242e-11 PJ=3.25314e-05 nf=1
D85 VSSO VSS dpnwcpl18 AREA=2.242e-11 PJ=3.25314e-05 nf=1
D86 VSS VSSO dpnwcpl18 AREA=2.242e-11 PJ=3.25314e-05 nf=1
D87 VSS VSSO dpnwcpl18 AREA=2.242e-11 PJ=3.25314e-05 nf=1
D88 VSS VSSO dpnwcpl18 AREA=2.242e-11 PJ=3.25314e-05 nf=1
D89 VSS VSSO dpnwcpl18 AREA=2.242e-11 PJ=3.25314e-05 nf=1
D90 VSS VSSO dpnwcpl18 AREA=2.242e-11 PJ=3.25314e-05 nf=1
D91 VSS VSSO dpnwcpl18 AREA=2.242e-11 PJ=3.25314e-05 nf=1
D92 VSS VSSO dpnwcpl18 AREA=2.242e-11 PJ=3.25314e-05 nf=1
.ENDS

.SUBCKT PAN_50_NA PAD VDDO VSS VDD VSSO PADR
*.PININFO PAD:B VDDO:B VSS:B VDD:B VSSO:B PADR:B
M0 VSSO 8 PAD PAD N5_ISO L=6e-07 W=2.4e-05 rf_flag=0
M1 PAD 8 VSSO PAD N5_ISO L=6e-07 W=2.4e-05 rf_flag=0
M2 VSSO 8 PAD PAD N5_ISO L=6e-07 W=2.4e-05 rf_flag=0
M3 PAD 8 VSSO PAD N5_ISO L=6e-07 W=2.4e-05 rf_flag=0
M4 VSSO 8 PAD PAD N5_ISO L=6e-07 W=2.4e-05 rf_flag=0
M5 PAD 8 VSSO PAD N5_ISO L=6e-07 W=2.4e-05 rf_flag=0
M6 VSSO 8 PAD PAD N5_ISO L=6e-07 W=2.4e-05 rf_flag=0
M7 PAD 8 VSSO PAD N5_ISO L=6e-07 W=2.4e-05 rf_flag=0
M8 VSSO 8 PAD PAD N5_ISO L=6e-07 W=2.4e-05 rf_flag=0
M9 PAD 8 VSSO PAD N5_ISO L=6e-07 W=2.4e-05 rf_flag=0
M10 VSSO 8 PAD PAD N5_ISO L=6e-07 W=2.4e-05 rf_flag=0
M11 PAD 8 VSSO PAD N5_ISO L=6e-07 W=2.4e-05 rf_flag=0
M12 VSSO 8 PAD PAD N5_ISO L=6e-07 W=2.4e-05 rf_flag=0
M13 PAD 8 VSSO PAD N5_ISO L=6e-07 W=2.4e-05 rf_flag=0
M14 VSSO 8 PAD PAD N5_ISO L=6e-07 W=2.4e-05 rf_flag=0
M15 PAD 8 VSSO PAD N5_ISO L=6e-07 W=2.4e-05 rf_flag=0
M16 VSS 9 PAD PAD N5_ISO L=6e-07 W=2.4e-05 rf_flag=0
M17 PAD 9 VSS PAD N5_ISO L=6e-07 W=2.4e-05 rf_flag=0
M18 VSS 9 PAD PAD N5_ISO L=6e-07 W=2.4e-05 rf_flag=0
M19 PAD 9 VSS PAD N5_ISO L=6e-07 W=2.4e-05 rf_flag=0
M20 VSS 9 PAD PAD N5_ISO L=6e-07 W=2.4e-05 rf_flag=0
M21 PAD 9 VSS PAD N5_ISO L=6e-07 W=2.4e-05 rf_flag=0
M22 VSS 9 PAD PAD N5_ISO L=6e-07 W=2.4e-05 rf_flag=0
M23 PAD 9 VSS PAD N5_ISO L=6e-07 W=2.4e-05 rf_flag=0
M24 VSS 9 PAD PAD N5_ISO L=6e-07 W=2.4e-05 rf_flag=0
M25 PAD 9 VSS PAD N5_ISO L=6e-07 W=2.4e-05 rf_flag=0
M26 VSS 9 PAD PAD N5_ISO L=6e-07 W=2.4e-05 rf_flag=0
M27 PAD 9 VSS PAD N5_ISO L=6e-07 W=2.4e-05 rf_flag=0
M28 VSS 9 PAD PAD N5_ISO L=6e-07 W=2.4e-05 rf_flag=0
M29 PAD 9 VSS PAD N5_ISO L=6e-07 W=2.4e-05 rf_flag=0
M30 VSS 9 PAD PAD N5_ISO L=6e-07 W=2.4e-05 rf_flag=0
M31 PAD 9 VSS PAD N5_ISO L=6e-07 W=2.4e-05 rf_flag=0
M32 VSSO 12 PADR PADR N5_ISO L=6e-07 W=2e-05 rf_flag=0
M33 PADR 12 VSSO PADR N5_ISO L=6e-07 W=2e-05 rf_flag=0
M34 VSS 10 PADR PADR N5_ISO L=6e-07 W=2e-05 rf_flag=0
M35 PADR 10 VSS PADR N5_ISO L=6e-07 W=2e-05 rf_flag=0
R36 7 VSS 1016.12 L=7e-06 W=3e-06 postlayout=1 $SUB=VSS $[RE3]
R37 PAD 9 8325.14 L=4e-05 W=2e-06 postlayout=1 $SUB=VSSO $[RE3]
R38 10 PADR 8325.14 L=4e-05 W=2e-06 postlayout=1 $SUB=VSSO $[RE3]
R39 PAD 8 8325.14 L=4e-05 W=2e-06 postlayout=1 $SUB=VSSO $[RE3]
R40 12 PADR 8325.14 L=4e-05 W=2e-06 postlayout=1 $SUB=VSSO $[RE3]
R41 VSSO 6 1016.12 L=7e-06 W=3e-06 postlayout=1 $SUB=VSSO $[RE3]
R42 PAD PADR 1090.5 L=1.3e-05 W=5e-06 postlayout=1 $SUB=VSSO $[RE3]
D43 PAD VDDO DDWNPW18 AREA=2.63784e-09 PJ=0.00022976
D44 PAD VDDO DDWNPW18 AREA=8.13555e-09 PJ=0.00038855
D45 PAD VDDO DDWNPW18 AREA=2.63784e-09 PJ=0.00022976
D46 VSS VDDO DDWNPW18 AREA=2.002e-10 PJ=6.74e-05
D47 VSS VDDO DDWNPW18 AREA=1.11214e-09 PJ=0.00014804
D48 VSSO VDDO DDWNPW18 AREA=1.11214e-09 PJ=0.00014804
D49 VSSO VDDO DDWNPW18 AREA=2.11656e-09 PJ=0.00027241
D50 PADR VDDO DDWNPW18 AREA=2.44322e-10 PJ=7.02e-05
D51 VSS VDDO DDWNPS18 AREA=2.15322e-08 PJ=0.00064331
M52 13 PAD PAD PAD n59pcesd L=6e-07 W=4.8e-05
M53 VDDO 6 13 PAD n59pcesd L=6e-07 W=4.8e-05
M54 14 6 VDDO PAD n59pcesd L=6e-07 W=4.8e-05
M55 PAD PAD 14 PAD n59pcesd L=6e-07 W=4.8e-05
M56 15 PAD PAD PAD n59pcesd L=6e-07 W=4.8e-05
M57 VDDO 6 15 PAD n59pcesd L=6e-07 W=4.8e-05
M58 16 6 VDDO PAD n59pcesd L=6e-07 W=4.8e-05
M59 PAD PAD 16 PAD n59pcesd L=6e-07 W=4.8e-05
M60 17 PAD PAD PAD n59pcesd L=6e-07 W=4.8e-05
M61 VDDO 6 17 PAD n59pcesd L=6e-07 W=4.8e-05
M62 18 6 VDDO PAD n59pcesd L=6e-07 W=4.8e-05
M63 PAD PAD 18 PAD n59pcesd L=6e-07 W=4.8e-05
M64 19 PAD PAD PAD n59pcesd L=6e-07 W=4.8e-05
M65 VDDO 6 19 PAD n59pcesd L=6e-07 W=4.8e-05
M66 20 6 VDDO PAD n59pcesd L=6e-07 W=4.8e-05
M67 PAD PAD 20 PAD n59pcesd L=6e-07 W=4.8e-05
M68 21 PAD PAD PAD n59pcesd L=6e-07 W=4.8e-05
M69 VDDO 6 21 PAD n59pcesd L=6e-07 W=4.8e-05
M70 22 6 VDDO PAD n59pcesd L=6e-07 W=4.8e-05
M71 PAD PAD 22 PAD n59pcesd L=6e-07 W=4.8e-05
M72 23 PAD PAD PAD n59pcesd L=6e-07 W=4.8e-05
M73 VDD 7 23 PAD n59pcesd L=6e-07 W=4.8e-05
M74 24 7 VDD PAD n59pcesd L=6e-07 W=4.8e-05
M75 PAD PAD 24 PAD n59pcesd L=6e-07 W=4.8e-05
M76 25 PAD PAD PAD n59pcesd L=6e-07 W=4.8e-05
M77 VDD 7 25 PAD n59pcesd L=6e-07 W=4.8e-05
M78 26 7 VDD PAD n59pcesd L=6e-07 W=4.8e-05
M79 PAD PAD 26 PAD n59pcesd L=6e-07 W=4.8e-05
M80 27 PAD PAD PAD n59pcesd L=6e-07 W=4.8e-05
M81 VDD 7 27 PAD n59pcesd L=6e-07 W=4.8e-05
M82 28 7 VDD PAD n59pcesd L=6e-07 W=4.8e-05
M83 PAD PAD 28 PAD n59pcesd L=6e-07 W=4.8e-05
M84 29 PAD PAD PAD n59pcesd L=6e-07 W=4.8e-05
M85 VDD 7 29 PAD n59pcesd L=6e-07 W=4.8e-05
M86 30 7 VDD PAD n59pcesd L=6e-07 W=4.8e-05
M87 PAD PAD 30 PAD n59pcesd L=6e-07 W=4.8e-05
M88 31 PAD PAD PAD n59pcesd L=6e-07 W=4.8e-05
M89 VDD 7 31 PAD n59pcesd L=6e-07 W=4.8e-05
M90 32 7 VDD PAD n59pcesd L=6e-07 W=4.8e-05
M91 PAD PAD 32 PAD n59pcesd L=6e-07 W=4.8e-05
D92 VSS VSSO dnpwcpl5 AREA=1.492e-11 PJ=2.25314e-05 nf=1
D93 VSS VSSO dnpwcpl5 AREA=1.492e-11 PJ=2.25314e-05 nf=1
D94 VSS VSSO dnpwcpl5 AREA=1.492e-11 PJ=2.25314e-05 nf=1
D95 VSS VSSO dnpwcpl5 AREA=1.492e-11 PJ=2.25314e-05 nf=1
D96 VSS VSSO dnpwcpl5 AREA=1.492e-11 PJ=2.25314e-05 nf=1
D97 VSS VSSO dnpwcpl5 AREA=1.492e-11 PJ=2.25314e-05 nf=1
D98 VSS VSSO dnpwcpl5 AREA=1.492e-11 PJ=2.25314e-05 nf=1
D99 VSS VSSO dnpwcpl5 AREA=1.492e-11 PJ=2.25314e-05 nf=1
D100 VSS VSSO dnpwcpl5 AREA=1.492e-11 PJ=2.25314e-05 nf=1
D101 VSS VSSO dnpwcpl5 AREA=1.492e-11 PJ=2.25314e-05 nf=1
D102 VSSO VSS dnpwcpl5 AREA=1.492e-11 PJ=2.25314e-05 nf=1
D103 VSSO VSS dnpwcpl5 AREA=1.492e-11 PJ=2.25314e-05 nf=1
D104 VSSO VSS dnpwcpl5 AREA=1.492e-11 PJ=2.25314e-05 nf=1
D105 VSSO VSS dnpwcpl5 AREA=1.492e-11 PJ=2.25314e-05 nf=1
D106 VSSO VSS dnpwcpl5 AREA=1.492e-11 PJ=2.25314e-05 nf=1
D107 VSSO VSS dnpwcpl5 AREA=1.492e-11 PJ=2.25314e-05 nf=1
D108 VSSO VSS dnpwcpl5 AREA=1.492e-11 PJ=2.25314e-05 nf=1
D109 VSSO VSS dnpwcpl5 AREA=1.492e-11 PJ=2.25314e-05 nf=1
D110 VSSO VSS dnpwcpl5 AREA=1.492e-11 PJ=2.25314e-05 nf=1
D111 VSSO VSS dnpwcpl5 AREA=1.492e-11 PJ=2.25314e-05 nf=1
.ENDS

.SUBCKT PIOH_18_18 PAD VSSO VSS VDD VDDO SCHM_ON EN IE VDDO_OK I PULL_UP_DOWN PULL_ON TTL_ON DRIVE_STR VDD_OK CIN
*.PININFO PAD:B VSSO:B VSS:B VDD:B VDDO:B SCHM_ON:I EN:I IE:I VDDO_OK:I I:I PULL_UP_DOWN:I PULL_ON:I TTL_ON:I DRIVE_STR:I VDD_OK:I CIN:O
M0 78 VDDO_OK 7 VSSO N L=1.8e-07 W=5e-06 rf_flag=0
M1 7 VDDO_OK 78 VSSO N L=1.8e-07 W=5e-06 rf_flag=0
M2 78 VDDO_OK 7 VSSO N L=1.8e-07 W=5e-06 rf_flag=0
M3 7 VDDO_OK 78 VSSO N L=1.8e-07 W=5e-06 rf_flag=0
M4 78 8 VSSO VSSO N L=1.8e-07 W=5e-06 rf_flag=0
M5 VSSO 8 78 VSSO N L=1.8e-07 W=5e-06 rf_flag=0
M6 78 8 VSSO VSSO N L=1.8e-07 W=5e-06 rf_flag=0
M7 VSSO 8 78 VSSO N L=1.8e-07 W=5e-06 rf_flag=0
M8 37 7 VSSO VSSO N L=1.8e-07 W=5e-06 rf_flag=0
M9 VSSO 7 37 VSSO N L=1.8e-07 W=5e-06 rf_flag=0
M10 37 7 VSSO VSSO N L=1.8e-07 W=5e-06 rf_flag=0
M11 VSS SCHM_ON 8 VSS N L=1.8e-07 W=2.5e-06 rf_flag=0
M12 25 IE VSSO VSSO N L=1.8e-07 W=6.5e-06 rf_flag=0
M13 VSSO IE 25 VSSO N L=1.8e-07 W=6.5e-06 rf_flag=0
M14 13 VDDO_OK VSSO VSSO N L=1.8e-07 W=3.75e-06 rf_flag=0
M15 VSSO VDDO_OK 13 VSSO N L=1.8e-07 W=3.75e-06 rf_flag=0
M16 11 SCHM_ON VSSO VSSO N L=1.8e-07 W=4.34e-06 rf_flag=0
M17 VSSO SCHM_ON 11 VSSO N L=1.8e-07 W=4.34e-06 rf_flag=0
M18 11 SCHM_ON VSSO VSSO N L=1.8e-07 W=4.34e-06 rf_flag=0
M19 8 SCHM_ON VSS VSS N L=1.8e-07 W=2.5e-06 rf_flag=0
M20 17 VMAX VSSO VSSO N L=3e-06 W=5e-06 rf_flag=0
M21 20 IE VSS VSS N L=1.8e-07 W=2.5e-06 rf_flag=0
M22 VSSO 19 18 VSSO N L=1.8e-07 W=3e-06 rf_flag=0
M23 19 VDDO_OK VSSO VSSO N L=1.8e-07 W=3e-06 rf_flag=0
M24 80 24 VSSO VSSO N L=1.8e-07 W=5e-06 rf_flag=0
M25 VSSO 24 80 VSSO N L=1.8e-07 W=5e-06 rf_flag=0
M26 80 24 VSSO VSSO N L=1.8e-07 W=5e-06 rf_flag=0
M27 VSSO 24 80 VSSO N L=1.8e-07 W=5e-06 rf_flag=0
M28 21 EN VSSO VSSO N L=1.8e-07 W=4.5e-06 rf_flag=0
M29 VSSO EN 21 VSSO N L=1.8e-07 W=4.5e-06 rf_flag=0
M30 34 18 VSSO VSSO N L=1.8e-07 W=5e-06 rf_flag=0
M31 VSSO 18 34 VSSO N L=1.8e-07 W=5e-06 rf_flag=0
M32 34 18 VSSO VSSO N L=1.8e-07 W=5e-06 rf_flag=0
M33 80 VDDO_OK 18 VSSO N L=1.8e-07 W=5e-06 rf_flag=0
M34 18 VDDO_OK 80 VSSO N L=1.8e-07 W=5e-06 rf_flag=0
M35 80 VDDO_OK 18 VSSO N L=1.8e-07 W=5e-06 rf_flag=0
M36 18 VDDO_OK 80 VSSO N L=1.8e-07 W=5e-06 rf_flag=0
M37 VSS IE 20 VSS N L=1.8e-07 W=2.5e-06 rf_flag=0
M38 VSS EN 24 VSS N L=1.8e-07 W=2.5e-06 rf_flag=0
M39 30 20 VSSO VSSO N L=1.8e-07 W=5e-06 rf_flag=0
M40 VSSO 20 30 VSSO N L=1.8e-07 W=5e-06 rf_flag=0
M41 24 EN VSS VSS N L=1.8e-07 W=2.5e-06 rf_flag=0
M42 PAD 17 VSSO VSSO N L=2.5e-07 W=2.4e-05 rf_flag=0
M43 VSSO 14 PAD VSSO N L=2.5e-07 W=2.4e-05 rf_flag=0
M44 PAD 17 VSSO VSSO N L=2.5e-07 W=2.4e-05 rf_flag=0
M45 VSSO 14 PAD VSSO N L=2.5e-07 W=2.4e-05 rf_flag=0
M46 PAD 17 VSSO VSSO N L=2.5e-07 W=2.4e-05 rf_flag=0
M47 VSSO 14 PAD VSSO N L=2.5e-07 W=2.4e-05 rf_flag=0
M48 PAD 17 VSSO VSSO N L=2.5e-07 W=2.4e-05 rf_flag=0
M49 VSSO 15 PAD VSSO N L=2.5e-07 W=2.4e-05 rf_flag=0
M50 PAD 17 VSSO VSSO N L=2.5e-07 W=2.4e-05 rf_flag=0
M51 VSSO 15 PAD VSSO N L=2.5e-07 W=2.4e-05 rf_flag=0
M52 PAD 17 VSSO VSSO N L=2.5e-07 W=2.4e-05 rf_flag=0
M53 VSSO 15 PAD VSSO N L=2.5e-07 W=2.4e-05 rf_flag=0
M54 PAD 17 VSSO VSSO N L=2.5e-07 W=2.4e-05 rf_flag=0
M55 VSSO 16 PAD VSSO N L=2.5e-07 W=2.4e-05 rf_flag=0
M56 PAD 17 VSSO VSSO N L=2.5e-07 W=2.4e-05 rf_flag=0
M57 VSSO 16 PAD VSSO N L=2.5e-07 W=2.4e-05 rf_flag=0
M58 30 13 VSSO VSSO N L=1.8e-07 W=2e-06 rf_flag=0
M59 VSSO 31 55 VSSO N L=1.8e-07 W=1e-05 rf_flag=0
M60 55 31 VSSO VSSO N L=1.8e-07 W=1e-05 rf_flag=0
M61 VSS EN 24 VSS N L=1.8e-07 W=2.5e-06 rf_flag=0
M62 VSSO 22 55 VSSO N L=8e-06 W=1.5e-06 rf_flag=0
M63 52 32 VSSO VSSO N L=1.8e-07 W=1e-05 rf_flag=0
M64 VSSO 32 52 VSSO N L=1.8e-07 W=1e-05 rf_flag=0
M65 52 32 VSSO VSSO N L=1.8e-07 W=1e-05 rf_flag=0
M66 24 EN VSS VSS N L=1.8e-07 W=2.5e-06 rf_flag=0
M67 81 VDDO_OK 26 VSSO N L=1.8e-07 W=5e-06 rf_flag=0
M68 26 VDDO_OK 81 VSSO N L=1.8e-07 W=5e-06 rf_flag=0
M69 81 VDDO_OK 26 VSSO N L=1.8e-07 W=5e-06 rf_flag=0
M70 26 VDDO_OK 81 VSSO N L=1.8e-07 W=5e-06 rf_flag=0
M71 81 27 VSSO VSSO N L=1.8e-07 W=5e-06 rf_flag=0
M72 VSSO 27 81 VSSO N L=1.8e-07 W=5e-06 rf_flag=0
M73 81 27 VSSO VSSO N L=1.8e-07 W=5e-06 rf_flag=0
M74 VSSO 27 81 VSSO N L=1.8e-07 W=5e-06 rf_flag=0
M75 35 26 VSSO VSSO N L=1.8e-07 W=5e-06 rf_flag=0
M76 VSSO 26 35 VSSO N L=1.8e-07 W=5e-06 rf_flag=0
M77 35 26 VSSO VSSO N L=1.8e-07 W=5e-06 rf_flag=0
M78 VSS I 27 VSS N L=1.8e-07 W=2.5e-06 rf_flag=0
M79 29 I VSSO VSSO N L=1.8e-07 W=4.5e-06 rf_flag=0
M80 VSSO I 29 VSSO N L=1.8e-07 W=4.5e-06 rf_flag=0
M81 27 I VSS VSS N L=1.8e-07 W=2.5e-06 rf_flag=0
M82 54 30 VSSO VSSO N L=1.8e-07 W=3.75e-06 rf_flag=0
M83 VSSO 30 54 VSSO N L=1.8e-07 W=3.75e-06 rf_flag=0
M84 VSS I 27 VSS N L=1.8e-07 W=2.5e-06 rf_flag=0
M85 27 I VSS VSS N L=1.8e-07 W=2.5e-06 rf_flag=0
M86 VSS PULL_UP_DOWN 22 VSS N L=1.8e-07 W=3.75e-06 rf_flag=0
M87 VSSO 46 14 VSSO N L=1.8e-07 W=1.5e-05 rf_flag=0
M88 14 46 VSSO VSSO N L=1.8e-07 W=1.5e-05 rf_flag=0
M89 22 PULL_UP_DOWN VSS VSS N L=1.8e-07 W=3.75e-06 rf_flag=0
M90 VSSO 36 32 VSSO N L=1.8e-07 W=5e-06 rf_flag=0
M91 32 36 VSSO VSSO N L=1.8e-07 W=5e-06 rf_flag=0
M92 VSSO 36 32 VSSO N L=1.8e-07 W=5e-06 rf_flag=0
M93 32 35 VSSO VSSO N L=1.8e-07 W=5e-06 rf_flag=0
M94 VSSO 35 32 VSSO N L=1.8e-07 W=5e-06 rf_flag=0
M95 32 35 VSSO VSSO N L=1.8e-07 W=5e-06 rf_flag=0
M96 VSSO 34 32 VSSO N L=1.8e-07 W=5e-06 rf_flag=0
M97 32 34 VSSO VSSO N L=1.8e-07 W=5e-06 rf_flag=0
M98 VSSO 34 32 VSSO N L=1.8e-07 W=5e-06 rf_flag=0
M99 VSS PULL_UP_DOWN 22 VSS N L=1.8e-07 W=3.75e-06 rf_flag=0
M100 22 PULL_UP_DOWN VSS VSS N L=1.8e-07 W=3.75e-06 rf_flag=0
M101 75 43 74 VSSO N L=1.8e-07 W=1e-05 rf_flag=0
M102 74 43 75 VSSO N L=1.8e-07 W=1e-05 rf_flag=0
M103 75 43 74 VSSO N L=1.8e-07 W=1e-05 rf_flag=0
M104 52 32 75 VSSO N L=1.8e-07 W=1e-05 rf_flag=0
M105 75 32 52 VSSO N L=1.8e-07 W=1e-05 rf_flag=0
M106 52 32 75 VSSO N L=1.8e-07 W=1e-05 rf_flag=0
M107 VSS 38 22 VSS N L=1.8e-07 W=3.75e-06 rf_flag=0
M108 22 38 VSS VSS N L=1.8e-07 W=3.75e-06 rf_flag=0
M109 VSS 38 22 VSS N L=1.8e-07 W=3.75e-06 rf_flag=0
M110 VSSO 42 36 VSSO N L=1.8e-07 W=5e-06 rf_flag=0
M111 36 42 VSSO VSSO N L=1.8e-07 W=5e-06 rf_flag=0
M112 VSSO 47 16 VSSO N L=1.8e-07 W=7.5e-06 rf_flag=0
M113 16 47 VSSO VSSO N L=1.8e-07 W=7.5e-06 rf_flag=0
M114 VSSO 47 15 VSSO N L=1.8e-07 W=7.5e-06 rf_flag=0
M115 15 47 VSSO VSSO N L=1.8e-07 W=7.5e-06 rf_flag=0
M116 22 38 VSS VSS N L=1.8e-07 W=3.75e-06 rf_flag=0
M117 VSSO 37 40 VSSO N L=1.8e-07 W=5e-06 rf_flag=0
M118 39 44 VSSO VSSO N L=1.8e-07 W=5e-06 rf_flag=0
M119 38 PULL_ON VSS VSS N L=1.8e-07 W=3.5e-06 rf_flag=0
M120 85 39 VSSO VSSO N L=1.8e-07 W=2e-06 rf_flag=0
M121 44 40 85 VSSO N L=1.8e-07 W=1.3e-06 rf_flag=0
M122 VSS PULL_ON 38 VSS N L=1.8e-07 W=3.5e-06 rf_flag=0
M123 VSSO 16 42 VSSO N L=1.8e-07 W=5e-06 rf_flag=0
M124 64 50 VSSO VSSO N L=1.8e-07 W=1e-05 rf_flag=0
M125 44 TTL_ON 89 VSSO N L=1.8e-07 W=8.335e-06 rf_flag=0
M126 89 TTL_ON 44 VSSO N L=1.8e-07 W=8.335e-06 rf_flag=0
M127 44 TTL_ON 89 VSSO N L=1.8e-07 W=8.335e-06 rf_flag=0
M128 VSS PULL_ON 87 VSS N L=1.8e-07 W=3.5e-06 rf_flag=0
M129 87 PULL_ON VSS VSS N L=1.8e-07 W=3.5e-06 rf_flag=0
M130 68 PULL_UP_DOWN 87 VSS N L=1.8e-07 W=3.5e-06 rf_flag=0
M131 VSSO 49 43 VSSO N L=1.8e-07 W=1e-05 rf_flag=0
M132 43 49 VSSO VSSO N L=1.8e-07 W=1e-05 rf_flag=0
M133 87 PULL_UP_DOWN 68 VSS N L=1.8e-07 W=3.5e-06 rf_flag=0
M134 91 48 VSSO VSSO N L=1.8e-07 W=1e-05 rf_flag=0
M135 VSSO 48 91 VSSO N L=1.8e-07 W=1e-05 rf_flag=0
M136 91 55 89 VSSO N L=1.8e-07 W=8.335e-06 rf_flag=0
M137 89 55 91 VSSO N L=1.8e-07 W=8.335e-06 rf_flag=0
M138 91 55 89 VSSO N L=1.8e-07 W=8.335e-06 rf_flag=0
M139 VSSO 32 90 VSSO N L=1.8e-07 W=5e-06 rf_flag=0
M140 90 32 VSSO VSSO N L=1.8e-07 W=5e-06 rf_flag=0
M141 49 51 90 VSSO N L=1.8e-07 W=5e-06 rf_flag=0
M142 90 51 49 VSSO N L=1.8e-07 W=5e-06 rf_flag=0
M143 50 52 VSSO VSSO N L=1.8e-07 W=5e-06 rf_flag=0