* File: pc3b02d.dist.sp.pex
* Created: Sun Jul  4 12:09:53 2010
* Program "Calibre xRC"
* Version "v2008.4_19.14"
* Nominal Temperature: 27C
* Circuit Temperature: 27C
* 
.subckt PM_PC3B02D%PAD 21 50 79 108 137 166 218 242 266 290 320 326 389 428 452
+ 459
c0 467 0 28.598f
c1 460 0 83.4871f
c2 459 0 64.3341f
c3 456 0 159.215f
c4 451 0 1.02644f
c5 444 0 9.95853f
c6 434 0 13.0869f
c7 425 0 0.117887f
c8 423 0 213.75f
c9 408 0 15.3329f
c10 397 0 46.9231f
c11 392 0 65.4578f
c12 390 0 15.889f
c13 389 0 1.04909f
c14 388 0 3.88478f
c15 326 0 13.4441f
c16 320 0 13.4329f
c17 290 0 13.4316f
c18 266 0 13.4412f
c19 242 0 13.7144f
c20 218 0 13.4278f
c21 176 0 7.52869f
c22 166 0 2.98552f
c23 149 0 6.78371f
c24 137 0 2.98621f
c25 120 0 6.78371f
c26 108 0 2.98555f
c27 91 0 6.78371f
c28 79 0 2.98471f
c29 62 0 6.78371f
c30 50 0 2.98471f
c31 33 0 6.78371f
c32 21 0 2.98457f
c33 4 0 6.78371f
r34 467 468 0.118407 
r35 466 467 0.118407 
r36 465 466 0.056883 
r37 464 465 0.061524 
r38 463 464 0.118407 
r39 462 463 0.0830354 
r40 461 462 0.0353716 
r41 459 460 0.0124825 
r42 457 459 0.000593149 
r43 456 457 0.0669731 
r44 451 452 0.00916 
r45 444 462 0.0545455 
r46 434 465 0.015 
r47 425 428 0.00916 
r48 425 451 2 
r49 423 434 0.0264274 
r50 421 423 0.147454 
r51 421 422 0.0288462 
r52 415 416 0.00752787 
r53 414 415 0.021023 
r54 412 414 0.000537705 
r55 412 456 0.00162999 
r56 410 412 0.000537705 
r57 408 410 0.0285508 
r58 399 451 0.1388 
r59 398 399 0.132996 
r60 397 398 0.0171733 
r61 394 395 0.0171733 
r62 393 394 0.0171733 
r63 392 393 0.0171733 
r64 391 397 0.0142401 
r65 391 395 0.00293318 
r66 390 422 0.00646891 
r67 390 392 0.00818451 
r68 388 444 0.202116 
r69 388 389 0.0147368 
r70 315 320 0.0072093 
r71 392 315 0.0566038 
r72 313 326 0.0072093 
r73 398 313 0.0566038 
r74 286 290 0.0072093 
r75 397 286 0.0566038 
r76 262 266 0.0072093 
r77 395 262 0.0566038 
r78 238 242 0.0072093 
r79 394 238 0.0566038 
r80 214 218 0.0072093 
r81 393 214 0.0566038 
r82 194 197 0.0022831 
r83 416 194 0.0375475 
r84 194 457 0.00547945 
r85 414 193 0.00210084 
r86 191 193 0.000537705 
r87 410 191 0.00210084 
r88 193 182 0.0105115 
r89 415 182 0.00712251 
r90 178 197 0.0187738 
r91 182 178 0.00376393 
r92 416 178 0.00712251 
r93 176 191 0.0142754 
r94 408 176 0.00356125 
r95 460 173 0.345778 
r96 172 468 0.0220132 
r97 172 173 0.319822 
r98 166 153 0.00249413 
r99 173 153 0.0425532 
r100 149 166 0.00249413 
r101 173 149 0.0425532 
r102 460 144 0.345778 
r103 143 467 0.0220132 
r104 143 144 0.319822 
r105 137 124 0.00249413 
r106 144 124 0.0425532 
r107 120 137 0.00249413 
r108 144 120 0.0425532 
r109 460 115 0.345778 
r110 114 466 0.0220132 
r111 114 115 0.319822 
r112 108 95 0.00249413 
r113 115 95 0.0425532 
r114 91 108 0.00249413 
r115 115 91 0.0425532 
r116 460 86 0.345778 
r117 85 464 0.0220132 
r118 85 86 0.319822 
r119 79 66 0.00249413 
r120 86 66 0.0425532 
r121 62 79 0.00249413 
r122 86 62 0.0425532 
r123 460 57 0.345778 
r124 56 463 0.0220132 
r125 56 57 0.319822 
r126 50 37 0.00249413 
r127 57 37 0.0425532 
r128 33 50 0.00249413 
r129 57 33 0.0425532 
r130 460 28 0.345778 
r131 27 461 0.0220132 
r132 27 28 0.319822 
r133 21 8 0.00249413 
r134 28 8 0.0425532 
r135 4 21 0.00249413 
r136 28 4 0.0425532 
.ends

.subckt PM_PC3B02D%noxref_2 8 18
c0 20 0 4.82409f
c1 18 0 0.993329f
c2 8 0 6.70711f
r3 18 20 0.158105 
r4 20 8 0.158526 
.ends

.subckt PM_PC3B02D%net_m32_VSSO_res 23 101 105 109 113 117
c0 117 0 0.519409f
c1 113 0 0.519409f
c2 109 0 0.519409f
c3 105 0 0.733303f
c4 101 0 0.73297f
c5 97 0 0.864037f
c6 91 0 0.0518462f
c7 57 0 0.0631005f
c8 47 0 0.242979f
c9 46 0 0.19588f
c10 45 0 0.135544f
c11 44 0 0.102874f
c12 43 0 0.162435f
c13 23 0 0.561629f
c14 21 0 0.0477785f
c15 20 0 0.371634f
r16 92 97 0.0552941 
r17 91 92 0.02 
r18 90 91 0.124706 
r19 58 101 85 
r20 56 117 85 
r21 56 57 0.93595 
r22 55 113 85 
r23 54 55 1.5553 
r24 53 97 2.20253 
r25 52 54 6.2212 
r26 52 53 1.5553 
r27 51 109 85 
r28 50 52 10.0922 
r29 50 51 1.5553 
r30 49 105 85 
r31 48 57 2.23066 
r32 47 58 3.37824 
r33 47 48 10.8571 
r34 46 54 4.70046 
r35 45 57 2.23066 
r36 45 46 9 
r37 44 49 3.37824 
r38 43 50 2.90323 
r39 43 44 10.8571 
r40 22 23 0.18 
r41 90 21 0.0446983 
r42 20 22 0.0446983 
r43 20 21 0.521176 
.ends

.subckt PM_PC3B02D%U27_padr 40 46 54 116 118 120 161 169
c0 256 0 16.186f
c1 250 0 9.28914f
c2 243 0 1.97944f
c3 239 0 15.9658f
c4 225 0 0.145078f
c5 224 0 0.0372956f
c6 223 0 0.0478417f
c7 222 0 0.0873247f
c8 219 0 6.60978f
c9 216 0 0.611623f
c10 215 0 0.164918f
c11 212 0 5.64194f
c12 210 0 0.516633f
c13 208 0 0.0693973f
c14 207 0 0.207306f
c15 206 0 0.411447f
c16 202 0 0.690345f
c17 196 0 1.02131f
c18 190 0 1.77083f
c19 181 0 2.13885f
c20 174 0 0.420557f
c21 169 0 1.07049f
c22 168 0 0.703764f
c23 167 0 0.0771424f
c24 166 0 0.490096f
c25 163 0 0.668895f
c26 161 0 5.5788e-21
c27 142 0 0.093022f
c28 136 0 0.0843457f
c29 128 0 16.1201f
c30 120 0 1.0951f
c31 118 0 0.567194f
c32 116 0 1.01681f
c33 86 0 0.396349f
c34 83 0 0.383767f
c35 82 0 0.369241f
c36 80 0 0.412308f
c37 76 0 0.429049f
c38 73 0 0.438883f
c39 70 0 0.225976f
c40 69 0 0.0193515f
c41 68 0 0.0746783f
c42 66 0 0.0505886f
c43 65 0 0.0689129f
c44 64 0 0.0827084f
c45 60 0 0.301316f
c46 58 0 0.0369514f
c47 57 0 0.101261f
c48 54 0 1.28706f
c49 51 0 0.0694637f
c50 50 0 0.370477f
c51 46 0 2.19527f
c52 44 0 0.44573f
c53 40 0 2.29777f
r54 256 241 0.172857 
r55 239 241 6 
r56 235 237 3.65467 
r57 225 227 3 
r58 224 225 0.109474 
r59 224 222 0.0456991 
r60 222 223 0.147143 
r61 219 256 2 
r62 217 223 0.0446983 
r63 217 219 10.3129 
r64 216 227 0.30381 
r65 250 212 0.185079 
r66 210 212 1.2 
r67 209 210 0.482857 
r68 207 209 0.0446983 
r69 207 208 0.125714 
r70 206 208 0.0446983 
r71 205 216 0.0446983 
r72 205 206 0.407619 
r73 202 243 6 
r74 200 215 0.15871 
r75 200 202 0.867097 
r76 198 239 1.736 
r77 237 198 9.58667 
r78 196 198 6 
r79 215 196 1.56387 
r80 176 243 2.38452 
r81 168 250 0.18836 
r82 168 169 0.0147368 
r83 166 176 0.0446983 
r84 166 167 0.619355 
r85 163 167 0.0456388 
r86 162 174 0.0200258 
r87 162 163 0.791 
r88 161 174 0.00412903 
r89 127 128 0.434667 
r90 108 120 168.333 
r91 108 142 3.92502 
r92 103 118 51.6667 
r93 102 103 1.66667 
r94 95 116 168.333 
r95 136 95 3.6393 
r96 190 90 6 
r97 87 193 0.8025 
r98 190 87 2.8475 
r99 87 128 6 
r100 86 142 0.77 
r101 193 86 6 
r102 83 188 1.2525 
r103 83 237 6 
r104 82 136 0.7825 
r105 188 82 6 
r106 181 80 6 
r107 77 184 0.8 
r108 181 77 2.88 
r109 77 127 6 
r110 184 76 6 
r111 73 179 0.482667 
r112 73 235 6 
r113 72 127 3.42533 
r114 179 72 6 
r115 70 90 0.05 
r116 66 76 0.642857 
r117 65 80 0.642857 
r118 64 70 0.0446983 
r119 63 69 0.0338756 
r120 63 64 0.1875 
r121 60 102 1.16667 
r122 59 69 0.0338756 
r123 59 60 0.245 
r124 57 69 0.00880368 
r125 57 58 0.25 
r126 53 58 0.0446983 
r127 53 54 1.2575 
r128 52 54 1.3775 
r129 50 52 0.0447588 
r130 50 51 0.544 
r131 68 46 2.375 
r132 44 68 0.12 
r133 43 66 0.0449572 
r134 43 44 0.8475 
r135 39 65 0.0449572 
r136 39 40 1.4975 
r137 38 51 0.0447588 
r138 38 40 1.3775 
.ends

.subckt PM_PC3B02D%net_m70_VDDO_res 8 39
c0 39 0 2.10472f
c1 34 0 1.31817f
c2 18 0 0.0808572f
c3 15 0 0.169752f
c4 10 0 0.0679084f
c5 9 0 0.73097f
c6 8 0 0.365575f
c7 6 0 0.182976f
r8 36 39 3.87662 
r9 17 34 43.5 
r10 16 34 49.5 
r11 18 15 16.5 
r12 11 18 4.13452 
r13 10 16 3.35237 
r14 9 15 3.35237 
r15 9 10 56.025 
r16 11 8 6.95493 
r17 7 36 1.62175 
r18 7 8 5.625 
r19 6 17 3.35237 
r20 6 8 5.625 
.ends

.subckt PM_PC3B02D%VSSO 400 423 427 476 798 802 809 838 845 852 872 874 879 884
+ 893 899 905 911 917 926 932 941 947 953 962 968 974 981 990 996 1008 1060 1066
+ 1070 1076
c0 1076 0 32.057f
c1 1063 0 1.98471f
c2 1060 0 46.9974f
c3 1040 0 7.93618f
c4 1038 0 6.95946f
c5 1033 0 6.96129f
c6 1028 0 6.9641f
c7 1023 0 6.96604f
c8 1018 0 6.96597f
c9 1008 0 0.00391448f
c10 1003 0 8.95235f
c11 996 0 0.342408f
c12 981 0 0.33957f
c13 974 0 1.36597f
c14 968 0 1.40025f
c15 953 0 1.35721f
c16 947 0 1.35624f
c17 932 0 1.34294f
c18 917 0 1.36358f
c19 911 0 1.14427f
c20 905 0 0.841018f
c21 899 0 1.36424f
c22 884 0 1.79275f
c23 879 0 1.69043f
c24 877 0 0.206454f
c25 874 0 0.00103986f
c26 872 0 8.25608e-19
c27 870 0 8.96457f
c28 857 0 7.85714f
c29 851 0 1.27875f
c30 841 0 1.65707f
c31 838 0 58.2593f
c32 805 0 1.35078f
c33 802 0 10.6383f
c34 790 0 0.111625f
c35 784 0 4.78f
c36 781 0 0.112784f
c37 780 0 0.0408562f
c38 779 0 1.53004f
c39 777 0 0.0510217f
c40 776 0 0.326591f
c41 775 0 0.688559f
c42 769 0 0.581495f
c43 765 0 0.708327f
c44 763 0 0.0337465f
c45 762 0 3.25531f
c46 760 0 0.383003f
c47 759 0 0.713156f
c48 758 0 0.303464f
c49 757 0 3.27963f
c50 756 0 0.383249f
c51 755 0 1.86525f
c52 753 0 0.0503886f
c53 752 0 0.188469f
c54 751 0 0.342548f
c55 718 0 0.122915f
c56 717 0 8.92225f
c57 684 0 0.269574f
c58 680 0 7.03694f
c59 676 0 0.146306f
c60 476 0 0.605971f
c61 448 0 0.842776f
c62 446 0 0.102273f
c63 444 0 0.0540025f
c64 442 0 1.40432f
c65 441 0 0.0287762f
c66 440 0 0.346848f
c67 427 0 0.780475f
c68 426 0 0.108442f
c69 423 0 0.556607f
c70 419 0 0.0481914f
c71 418 0 0.440305f
c72 400 0 0.114597f
c73 393 0 0.120931f
c74 317 0 7.05865f
c75 284 0 14.034f
c76 234 0 14.036f
c77 184 0 14.0389f
c78 134 0 14.0406f
c79 84 0 14.0405f
c80 10 0 0.146306f
r81 1074 1076 0.00282778 
r82 1073 1074 0.355444 
r83 1070 1073 0.00283333 
r84 1065 1067 0.0216667 
r85 1065 1066 0.02 
r86 1063 1065 0.00333333 
r87 1057 1058 0.12508 
r88 1056 1057 0.041123 
r89 1055 1056 0.0396791 
r90 1054 1055 0.043262 
r91 1053 1054 0.0347594 
r92 1052 1053 0.0198396 
r93 1051 1052 0.0819786 
r94 1050 1051 0.0253476 
r95 1049 1050 0.0227807 
r96 1048 1049 0.0490909 
r97 1047 1048 0.0226738 
r98 1046 1047 0.024385 
r99 1045 1046 0.0213904 
r100 1044 1063 0.02 
r101 1044 1045 0.0781283 
r102 1012 1013 0.0140639 
r103 1007 1008 0.0126606 
r104 1040 1005 0.0113761 
r105 1003 1005 0.0638298 
r106 1000 1058 2 
r107 996 1000 0.000380952 
r108 981 1057 2 
r109 977 1056 0.6 
r110 974 977 0.285 
r111 971 1055 0.6 
r112 968 971 0.32 
r113 956 1054 0.6 
r114 953 956 0.36 
r115 950 1053 0.6 
r116 947 950 0.37 
r117 935 1051 0.6 
r118 932 935 0.3225 
r119 920 1050 0.6 
r120 917 920 0.325 
r121 914 1049 0.6 
r122 911 914 0.3425 
r123 908 1048 0.75 
r124 905 908 0.04 
r125 902 1047 0.6 
r126 899 902 0.365 
r127 887 1046 0.6 
r128 884 887 0.3175 
r129 881 1045 0.666667 
r130 879 881 0.96 
r131 872 1007 0.013211 
r132 1003 872 0.000917431 
r133 870 872 0.000913242 
r134 870 1012 0.0638298 
r135 857 1012 0.0113242 
r136 855 857 0.0327869 
r137 854 855 0.029258 
r138 851 854 0.0131449 
r139 851 852 0.02 
r140 848 1074 0.357143 
r141 845 848 0.21 
r142 843 1060 0.00544385 
r143 1058 843 0.0345455 
r144 841 843 1 
r145 841 845 0.445 
r146 836 838 0.00612761 
r147 836 1040 0.0327869 
r148 990 834 0.130435 
r149 834 1038 0.00301741 
r150 1035 834 0.00301741 
r151 832 834 0.0266667 
r152 832 836 0.0287785 
r153 962 831 0.130435 
r154 831 1033 0.00301741 
r155 1030 831 0.00301741 
r156 829 831 0.0266667 
r157 829 832 0.0242129 
r158 941 828 0.130435 
r159 828 1028 0.00301741 
r160 1025 828 0.00301741 
r161 826 828 0.0266667 
r162 826 829 0.0242129 
r163 825 826 0.000615582 
r164 926 824 0.130435 
r165 824 1023 0.00301741 
r166 1020 824 0.00301741 
r167 822 824 0.0266667 
r168 822 825 0.0235973 
r169 893 821 0.130435 
r170 821 1018 0.00301741 
r171 1015 821 0.00301741 
r172 819 821 0.0266667 
r173 819 822 0.0242129 
r174 818 854 0.02 
r175 818 819 0.0277012 
r176 855 815 0.446124 
r177 812 1073 0.357143 
r178 809 812 0.21 
r179 807 1069 0.144409 
r180 1067 807 0.034 
r181 805 807 1 
r182 805 809 0.445 
r183 793 877 3 
r184 790 793 0.0536842 
r185 783 790 0.02 
r186 783 784 6.35789 
r187 780 781 0.1275 
r188 779 780 0.0448391 
r189 778 779 2.75862 
r190 776 778 0.044715 
r191 776 777 0.466667 
r192 775 777 0.0450432 
r193 1069 775 1.29371 
r194 769 790 0.02 
r195 769 770 0.746316 
r196 767 1008 0.230275 
r197 765 1003 0.210275 
r198 763 877 0.109474 
r199 761 874 0.229041 
r200 761 762 0.0863581 
r201 759 870 0.209132 
r202 759 760 0.0863581 
r203 767 757 0.0861375 
r204 757 758 0.132033 
r205 765 756 0.0861375 
r206 763 755 0.0420103 
r207 754 755 3.01467 
r208 752 754 0.0446983 
r209 752 753 0.289333 
r210 751 753 0.0447588 
r211 718 872 0.128 
r212 717 758 0.0473573 
r213 717 872 0.126 
r214 684 718 0.0473573 
r215 762 684 0.132033 
r216 680 872 0.126 
r217 679 879 1.1475 
r218 677 872 0.128 
r219 676 677 0.0473573 
r220 676 760 0.250407 
r221 784 450 6 
r222 1052 448 0.75 
r223 781 446 3 
r224 444 476 0.0494737 
r225 770 444 2 
r226 441 448 0.437895 
r227 441 442 0.0407126 
r228 679 440 0.0338756 
r229 426 450 0.0413535 
r230 426 427 1.14783 
r231 422 423 0.221176 
r232 418 422 0.0446983 
r233 418 419 0.608235 
r234 416 419 0.0446983 
r235 416 442 2.01647 
r236 399 440 0.00880368 
r237 399 400 0.1375 
r238 393 751 0.6025 
r239 393 446 0.0265396 
r240 320 802 0.0419737 
r241 798 320 0.0413851 
r242 825 320 0.00128205 
r243 815 317 2.21804 
r244 317 1067 0.6 
r245 990 284 0.00313778 
r246 1038 284 0.0652174 
r247 1005 273 0.0141284 
r248 273 1007 0.0652174 
r249 962 234 0.00313778 
r250 1033 234 0.0652174 
r251 224 990 0.00313778 
r252 1035 224 0.0652174 
r253 941 184 0.00313778 
r254 1028 184 0.0652174 
r255 174 962 0.00313778 
r256 1030 174 0.0652174 
r257 926 134 0.00313778 
r258 1023 134 0.0652174 
r259 124 941 0.00313778 
r260 1025 124 0.0652174 
r261 893 84 0.00313778 
r262 1018 84 0.0652174 
r263 74 926 0.00313778 
r264 1020 74 0.0652174 
r265 34 874 0.0126027 
r266 872 34 0.0131507 
r267 1013 34 0.0652174 
r268 24 893 0.00313778 
r269 1015 24 0.0652174 
r270 10 756 0.250407 
r271 10 680 0.0473573 
.ends

.subckt PM_PC3B02D%VSS 587 766 804 826 851 856 868 871 877
c0 877 0 91.3948f
c1 868 0 56.7714f
c2 854 0 2.37405f
c3 851 0 0.00368951f
c4 848 0 1.24367f
c5 835 0 1.23861f
c6 823 0 1.88726f
c7 815 0 15.7328f
c8 801 0 1.4553f
c9 786 0 25.2961f
c10 784 0 0.0842555f
c11 783 0 0.0657505f
c12 782 0 7.79676f
c13 781 0 0.729043f
c14 780 0 0.269279f
c15 778 0 0.849329f
c16 777 0 0.0372194f
c17 770 0 0.198007f
c18 766 0 4.218f
c19 765 0 10.3724f
c20 758 0 8.74401f
c21 755 0 0.253576f
c22 753 0 1.98808f
c23 637 0 2.4835f
c24 629 0 2.25025f
c25 620 0 1.88763f
c26 618 0 0.255284f
c27 616 0 0.276497f
c28 613 0 26.5825f
c29 607 0 0.816164f
c30 606 0 6.34069f
c31 603 0 0.100669f
c32 600 0 2.03915f
c33 594 0 0.137389f
c34 593 0 2.48969f
c35 592 0 0.154374f
c36 591 0 2.26426f
c37 587 0 0.00279637f
c38 539 0 0.162892f
c39 537 0 0.721903f
c40 535 0 0.203897f
c41 510 0 2.94262f
c42 496 0 3.0577f
c43 494 0 0.031054f
c44 490 0 7.73887f
c45 489 0 0.203811f
c46 474 0 5.70482f
c47 471 0 3.25515f
r48 875 877 0.000702051 
r49 874 875 0.0832563 
r50 871 874 0.000703354 
r51 867 868 0.00318245 
r52 864 865 0.0344168 
r53 863 864 0.167059 
r54 862 863 0.096989 
r55 861 862 0.0315852 
r56 860 861 0.0141176 
r57 854 867 0.461538 
r58 848 851 1.28857 
r59 848 865 1.5 
r60 842 863 0.0535714 
r61 835 838 0.045 
r62 835 862 0.666667 
r63 830 867 0.00119641 
r64 865 830 0.0758524 
r65 828 830 0.428571 
r66 826 828 0.189 
r67 823 826 0.013 
r68 823 875 0.131579 
r69 819 820 0.56934 
r70 818 819 1.12447 
r71 815 818 0.628223 
r72 815 864 0.3 
r73 808 860 0.089651 
r74 856 808 0.00438684 
r75 806 808 0.428571 
r76 804 806 0.189 
r77 801 804 0.013 
r78 801 874 0.131579 
r79 782 842 2.8715 
r80 782 783 0.0338756 
r81 776 784 0.0338756 
r82 775 783 0.0338756 
r83 772 784 0.00880368 
r84 771 783 0.00880368 
r85 770 778 0.0574488 
r86 780 770 0.0632911 
r87 766 795 2.59036 
r88 772 766 0.958 
r89 771 766 0.986 
r90 765 784 0.0338756 
r91 764 777 0.0448201 
r92 761 854 1.518 
r93 760 854 0.426 
r94 758 795 1.08482 
r95 753 764 2.13041 
r96 765 631 0.733 
r97 766 631 1.93 
r98 629 788 3 
r99 626 842 1.612 
r100 777 626 1.283 
r101 626 861 1.5 
r102 624 766 1.07807 
r103 755 624 1.06072 
r104 624 637 1 
r105 788 620 0.24 
r106 819 620 1.5 
r107 631 618 3 
r108 818 618 3 
r109 616 795 3 
r110 820 616 3 
r111 613 812 1.1314 
r112 613 860 0.125 
r113 612 637 0.0075 
r114 634 612 0.056 
r115 812 612 0.24 
r116 610 781 0.102486 
r117 610 780 0.0155975 
r118 786 610 1 
r119 608 786 0.9662 
r120 608 634 0.02 
r121 607 776 0.5005 
r122 761 607 0.0446983 
r123 606 775 0.5005 
r124 760 606 0.0446983 
r125 605 629 0.830244 
r126 604 629 0.573659 
r127 603 766 3.1035 
r128 753 603 0.0448201 
r129 599 600 1.37048 
r130 594 605 0.0448242 
r131 594 595 0.678222 
r132 593 600 0.0447675 
r133 593 595 0.650667 
r134 592 604 0.0446983 
r135 591 599 0.0447067 
r136 591 592 1.45854 
r137 838 587 0.31875 
r138 538 539 0.147619 
r139 534 535 0.14988 
r140 758 534 0.0380723 
r141 531 533 0.143333 
r142 755 530 0.0385542 
r143 528 530 0.14506 
r144 766 527 0.159 
r145 510 766 0.159 
r146 509 539 0.02 
r147 509 527 1.247 
r148 508 535 0.02 
r149 508 510 1.243 
r150 766 507 0.192 
r151 505 766 0.192 
r152 504 505 0.342 
r153 766 504 0.192 
r154 502 766 0.192 
r155 501 502 0.342 
r156 766 501 0.192 
r157 499 766 0.192 
r158 498 499 0.342 
r159 766 498 0.192 
r160 496 766 0.192 
r161 495 538 0.02 
r162 495 507 1.214 
r163 494 537 0.04 
r164 494 496 0.243 
r165 492 534 0.02 
r166 492 537 0.938734 
r167 490 538 0.0380952 
r168 490 781 4.80524 
r169 489 778 0.555238 
r170 489 533 0.0380952 
r171 766 485 0.159 
r172 483 766 0.159 
r173 482 483 0.408 
r174 766 482 0.159 
r175 480 766 0.159 
r176 479 480 0.408 
r177 766 479 0.159 
r178 477 766 0.159 
r179 476 477 0.408 
r180 766 476 0.159 
r181 474 766 0.159 
r182 473 533 0.02 
r183 473 485 1.247 
r184 472 530 0.02 
r185 472 474 1.243 
r186 471 531 0.02 
r187 470 528 0.02 
r188 470 471 4.69271 
.ends

.subckt PM_PC3B02D%U27_U69$7_gate 197 202 207 212 217 222 227 232 249
c0 384 0 0.256896f
c1 380 0 0.130993f
c2 378 0 0.465423f
c3 373 0 0.466085f
c4 368 0 0.465672f
c5 359 0 2.8268f
c6 343 0 0.46935f
c7 338 0 0.714411f
c8 337 0 0.674704f
c9 332 0 0.681049f
c10 327 0 0.304369f
c11 325 0 0.273588f
c12 323 0 0.0792102f
c13 322 0 0.329567f
c14 319 0 6.54958f
c15 313 0 1.21372f
c16 311 0 1.2117f
c17 310 0 0.164434f
c18 309 0 1.20805f
c19 308 0 0.16034f
c20 307 0 9.02943f
c21 306 0 0.290437f
c22 304 0 0.602284f
c23 300 0 0.136486f
c24 294 0 0.0903556f
c25 286 0 0.171308f
c26 280 0 0.680566f
c27 272 0 0.535191f
c28 264 0 0.53539f
c29 256 0 0.535266f
c30 250 0 0.300335f
c31 249 0 0.278026f
c32 241 0 0.163718f
c33 240 0 0.605873f
c34 239 0 0.169195f
c35 238 0 0.608618f
c36 237 0 0.169108f
c37 236 0 0.608415f
c38 235 0 0.169057f
c39 234 0 0.538755f
c40 232 0 3.10391f
c41 227 0 3.04886f
c42 222 0 3.04886f
c43 217 0 3.04886f
c44 212 0 3.04886f
c45 207 0 3.04886f
c46 202 0 3.04886f
c47 197 0 3.1022f
r48 345 384 0.00341463 
r49 343 345 3 
r50 340 378 0.000487805 
r51 375 340 0.055122 
r52 338 340 1.5 
r53 335 373 0.00292683 
r54 370 335 0.0526829 
r55 333 335 1.5 
r56 333 337 0.0934799 
r57 330 368 0.00536585 
r58 365 330 0.0502439 
r59 328 330 1.5 
r60 328 332 0.0954579 
r61 326 343 0.05061 
r62 326 327 0.662857 
r63 325 343 0.05061 
r64 324 325 0.202353 
r65 322 327 0.0446983 
r66 322 323 0.352857 
r67 319 380 6 
r68 317 323 0.0448488 
r69 317 319 6.78194 
r70 338 313 0.118535 
r71 313 337 1.459 
r72 333 311 0.117216 
r73 311 332 1.456 
r74 328 309 0.116337 
r75 309 310 1.453 
r76 307 324 0.0487211 
r77 307 308 10.989 
r78 361 306 0.0521951 
r79 304 306 3 
r80 303 310 0.0618904 
r81 303 304 0.0660729 
r82 302 308 0.0618904 
r83 302 304 0.137976 
r84 298 380 0.130323 
r85 297 300 0.153548 
r86 297 298 0.02 
r87 294 359 6 
r88 292 300 0.02 
r89 292 294 0.132903 
r90 291 359 3.99613 
r91 290 291 0.026898 
r92 286 290 0.10143 
r93 286 249 0.106667 
r94 241 280 1.85294 
r95 240 272 5.05882 
r96 239 272 5.05882 
r97 238 264 5.05882 
r98 237 264 5.05882 
r99 236 256 5.05882 
r100 235 256 5.05882 
r101 234 250 1.85294 
r102 229 241 3.88985 
r103 229 232 183.96 
r104 224 240 3.88985 
r105 224 227 183.96 
r106 219 239 3.88985 
r107 219 222 183.96 
r108 214 238 3.88985 
r109 214 217 183.96 
r110 209 237 3.88985 
r111 209 212 183.96 
r112 204 236 3.88985 
r113 204 207 183.96 
r114 199 235 3.88985 
r115 199 202 183.96 
r116 194 234 3.88985 
r117 194 197 183.96 
r118 280 135 0.00142683 
r119 384 135 3 
r120 272 117 0.00142683 
r121 378 117 3 
r122 264 92 0.00142683 
r123 373 92 3 
r124 272 81 0.0277856 
r125 375 81 3 
r126 256 56 0.00142683 
r127 368 56 3 
r128 264 45 0.0277856 
r129 370 45 3 
r130 250 20 0.00142683 
r131 361 20 3 
r132 256 9 0.0277856 
r133 365 9 3 
.ends

.subckt PM_PC3B02D%U15_ngate 70 77 84 91 99 107 143 145 193 199
c0 245 0 16.586f
c1 237 0 0.535266f
c2 236 0 0.766784f
c3 233 0 0.0908427f
c4 232 0 7.2169f
c5 230 0 0.210495f
c6 228 0 6.45528f
c7 225 0 0.101251f
c8 211 0 2.85498f
c9 201 0 0.608035f
c10 200 0 0.168943f
c11 199 0 3.04886f
c12 193 0 3.04886f
c13 153 0 0.407767f
c14 145 0 0.597859f
c15 143 0 0.860272f
c16 140 0 0.147369f
c17 137 0 0.152359f
c18 128 0 0.134991f
c19 125 0 1.31692f
c20 124 0 0.135067f
c21 121 0 0.815641f
c22 116 0 2.98513f
c23 114 0 0.0428228f
c24 113 0 0.0461791f
c25 112 0 0.0262636f
c26 111 0 0.0261329f
c27 107 0 0.989442f
c28 104 0 0.125032f
c29 103 0 1.6468f
c30 99 0 1.28445f
c31 96 0 0.0767532f
c32 95 0 0.252995f
c33 91 0 1.35208f
c34 88 0 0.346812f
c35 84 0 1.42004f
c36 81 0 0.248734f
c37 77 0 1.459f
c38 75 0 0.050305f
c39 74 0 0.28959f
c40 70 0 1.43019f
c41 26 0 0.461773f
r42 244 245 0.397333 
r43 243 244 5.10933 
r44 240 243 2.11067 
r45 234 236 0.0697285 
r46 234 252 1.5 
r47 232 236 0.0813046 
r48 232 233 7.477 
r49 240 230 6 
r50 228 230 6 
r51 227 233 0.0449052 
r52 227 228 7.33746 
r53 223 225 0.0755556 
r54 216 223 0.02 
r55 237 208 0.00142683 
r56 205 237 0.0277856 
r57 201 237 5.05882 
r58 200 237 5.05882 
r59 195 201 3.88985 
r60 195 199 183.96 
r61 190 200 3.88985 
r62 190 193 183.96 
r63 140 145 60 
r64 140 160 3.77986 
r65 137 143 85 
r66 137 153 3.53757 
r67 128 166 0.0370021 
r68 225 128 6 
r69 125 221 2.59143 
r70 125 245 6 
r71 221 124 6 
r72 216 121 1.53143 
r73 121 244 6 
r74 153 120 0.3325 
r75 211 120 6 
r76 117 214 2.2825 
r77 211 117 1.32 
r78 117 243 6 
r79 116 160 3.7825 
r80 214 116 6 
r81 113 124 0.0613333 
r82 106 107 1.2375 
r83 105 114 0.0310989 
r84 104 106 0.044713 
r85 104 105 0.152258 
r86 103 114 0.0112231 
r87 102 113 0.0447675 
r88 102 103 3.52 
r89 166 99 1.6275 
r90 97 99 1.28 
r91 95 114 0.0310989 
r92 95 96 0.301935 
r93 90 96 0.044713 
r94 90 91 1.2375 
r95 89 112 0.0338756 
r96 88 97 0.0446983 
r97 88 89 0.51 
r98 83 112 0.00880368 
r99 83 84 1.28 
r100 82 111 0.0338756 
r101 81 112 0.0338756 
r102 81 82 0.43 
r103 76 111 0.00880368 
r104 76 77 1.415 
r105 74 111 0.0338756 
r106 74 75 0.51 
r107 69 75 0.0446983 
r108 69 70 1.415 
r109 252 26 0.00195122 
r110 26 208 3 
r111 8 252 0.0536585 
r112 8 205 3 
.ends

.subckt PM_PC3B02D%U17_ngate2 51 61 66 102 108
c0 138 0 0.535473f
c1 137 0 1.05926f
c2 133 0 0.251576f
c3 131 0 0.400051f
c4 130 0 0.0671927f
c5 129 0 0.0750899f
c6 128 0 7.58922f
c7 127 0 3.92385f
c8 121 0 0.140917f
c9 112 0 0.15237f
c10 110 0 0.608149f
c11 109 0 0.169057f
c12 108 0 3.04886f
c13 102 0 3.04886f
c14 82 0 0.308328f
c15 74 0 3.11182f
c16 73 0 0.13299f
c17 71 0 0.0822206f
c18 70 0 0.227812f
c19 66 0 0.564314f
c20 61 0 1.528f
c21 59 0 0.0710256f
c22 58 0 0.121499f
c23 56 0 0.672508f
c24 55 0 3.58825f
c25 51 0 1.97363f
c26 26 0 0.449266f
r27 135 137 0.106489 
r28 135 149 1.5 
r29 141 133 6 
r30 131 133 6 
r31 130 131 0.53 
r32 128 137 0.0809637 
r33 128 129 8.87 
r34 127 130 0.0454198 
r35 126 129 0.0446983 
r36 126 127 5.202 
r37 121 123 0.0448391 
r38 121 122 0.0717241 
r39 138 118 0.00142683 
r40 115 138 0.0277856 
r41 112 141 0.07375 
r42 110 138 5.05882 
r43 109 138 5.05882 
r44 104 110 3.88985 
r45 104 108 183.96 
r46 99 109 3.88985 
r47 99 102 183.96 
r48 81 82 0.245 
r49 112 81 0.04 
r50 123 74 3.5675 
r51 74 82 6 
r52 122 73 6 
r53 71 73 0.0468966 
r54 65 66 0.79 
r55 60 61 1.745 
r56 58 60 0.0451268 
r57 58 59 0.124211 
r58 57 70 0.0321994 
r59 56 65 0.0447517 
r60 56 57 0.647059 
r61 55 59 0.0451268 
r62 54 71 0.0448391 
r63 54 55 5.505 
r64 50 81 0.02 
r65 50 51 2.2575 
r66 49 70 0.010241 
r67 49 51 1.98 
r68 149 26 0.00243902 
r69 26 118 3 
r70 8 149 0.0531707 
r71 8 115 3 
.ends

.subckt PM_PC3B02D%net_m69_VDDO_res 7 33
c0 33 0 1.65359f
c1 29 0 0.144044f
c2 17 0 0.183337f
c3 16 0 0.795025f
c4 15 0 1.71625f
c5 14 0 0.0798265f
c6 10 0 0.0756442f
c7 9 0 0.112005f
c8 7 0 0.369263f
r9 16 33 2.05452 
r10 16 17 8.75861 
r11 15 29 66.7742 
r12 14 29 60.5806 
r13 11 15 3.35663 
r14 11 17 11.5758 
r15 10 14 3.35347 
r16 9 10 6.625 
r17 6 9 4.5965 
r18 6 7 4.56364 
.ends

.subckt PM_PC3B02D%VDDO 321 761 766 773 780 787 794 801 808 914 931 934 943 948
+ 955 981 1044 1050 1370 1374 1377 1382 1389 1396 1417 1445 1456 1464 1472 1478
+ 1484 1490 1496 1502 1508 1514 1565 1581 1610 1615
c0 1615 0 21.133f
c1 1607 0 4.2188f
c2 1598 0 6.89048f
c3 1589 0 8.851f
c4 1584 0 6.00772f
c5 1581 0 52.3967f
c6 1561 0 3.00295f
c7 1527 0 9.65736f
c8 1514 0 1.39365f
c9 1508 0 2.72268f
c10 1502 0 1.3759f
c11 1496 0 1.73104f
c12 1490 0 2.0391f
c13 1484 0 0.750035f
c14 1478 0 1.58502f
c15 1472 0 2.42406f
c16 1469 0 5.46069f
c17 1453 0 0.505355f
c18 1449 0 30.9249f
c19 1448 0 1.96564f
c20 1445 0 64.9891f
c21 1444 0 1.61058f
c22 1395 0 52.7419f
c23 1385 0 0.698679f
c24 1384 0 1.41036f
c25 1382 0 3.0083f
c26 1374 0 2.5155f
c27 1362 0 0.130344f
c28 1352 0 0.331843f
c29 1348 0 0.211996f
c30 1342 0 0.234896f
c31 1332 0 0.619014f
c32 1328 0 0.300027f
c33 1324 0 0.616262f
c34 1318 0 3.05653f
c35 1316 0 0.693708f
c36 1311 0 1.54491f
c37 1306 0 2.36216f
c38 1302 0 0.0453763f
c39 1301 0 0.666268f
c40 1298 0 0.229935f
c41 1258 0 9.76182f
c42 1249 0 0.886743f
c43 1070 0 0.332849f
c44 1068 0 3.20919f
c45 1054 0 11.8334f
c46 1050 0 0.0820237f
c47 1044 0 0.482554f
c48 1003 0 4.04661f
c49 998 0 0.41875f
c50 997 0 0.126056f
c51 995 0 0.26179f
c52 991 0 0.0321078f
c53 989 0 8.41981f
c54 988 0 3.41661f
c55 983 0 1.01451f
c56 980 0 0.0193183f
c57 978 0 0.0208492f
c58 977 0 5.77508f
c59 975 0 0.182244f
c60 965 0 0.0969831f
c61 962 0 0.0596675f
c62 961 0 3.19809f
c63 960 0 1.12874f
c64 955 0 1.44047f
c65 952 0 0.451293f
c66 948 0 1.3781f
c67 934 0 0.33905f
c68 931 0 0.680873f
c69 925 0 0.0329466f
c70 924 0 1.20085f
c71 914 0 1.19403f
c72 813 0 7.38227f
c73 801 0 0.00989968f
c74 794 0 0.0234465f
c75 787 0 0.0106158f
c76 780 0 0.0106158f
c77 773 0 0.0106158f
c78 766 0 0.00937345f
c79 761 0 7.65505f
c80 733 0 12.0865f
c81 731 0 19.7941f
c82 729 0 19.7938f
c83 727 0 19.82f
c84 725 0 19.6069f
c85 723 0 19.7936f
c86 721 0 11.8827f
c87 695 0 0.114944f
c88 694 0 7.03246f
c89 691 0 0.104443f
c90 690 0 6.31254f
c91 321 0 0.614039f
c92 17 0 0.486838f
c93 16 0 6.73982f
c94 7 0 0.152029f
c95 6 0 6.75738f
r96 1610 1613 0.00394881 
r97 1607 1608 0.956244 
r98 1600 1601 0.279231 
r99 1598 1600 0.266538 
r100 1591 1592 0.273962 
r101 1589 1591 0.261509 
r102 1585 1586 1.79477 
r103 1584 1585 0.000373832 
r104 1578 1579 0.331721 
r105 1577 1578 0.0205664 
r106 1576 1577 0.0289325 
r107 1575 1576 0.0453159 
r108 1574 1575 0.0124619 
r109 1573 1574 0.0203922 
r110 1572 1573 0.0354684 
r111 1571 1572 0.0180828 
r112 1570 1571 0.0256209 
r113 1563 1581 0.00304139 
r114 1579 1563 0.00174292 
r115 1561 1563 0.461538 
r116 1522 1524 1.29677 
r117 1517 1578 0.6 
r118 1514 1517 0.4475 
r119 1511 1577 0.6 
r120 1508 1511 1.6625 
r121 1505 1576 0.666667 
r122 1502 1505 0.365 
r123 1499 1575 0.545455 
r124 1496 1499 1.4825 
r125 1493 1574 0.545455 
r126 1490 1493 1.63 
r127 1487 1573 0.75 
r128 1484 1487 0.1575 
r129 1481 1572 0.75 
r130 1478 1481 1.1525 
r131 1475 1571 0.5 
r132 1472 1475 1.455 
r133 1565 1471 0.00305011 
r134 1469 1471 0.461538 
r135 1464 1607 0.2 
r136 1460 1615 0.0039415 
r137 1613 1460 0.467422 
r138 1458 1460 0.5 
r139 1456 1458 0.181 
r140 1453 1456 0.17 
r141 1453 1579 1.5 
r142 1450 1451 0.5433 
r143 1449 1450 0.2247 
r144 1448 1464 0.0539366 
r145 1448 1451 0.099 
r146 1608 1444 0.698216 
r147 1442 1444 0.2 
r148 1442 1445 0.0136564 
r149 1601 1441 0.279231 
r150 1441 1439 0.279231 
r151 1439 1437 0.279231 
r152 1437 1435 0.266538 
r153 1433 1435 1.5 
r154 1433 1437 1.5 
r155 1433 1439 1.5 
r156 1433 1441 1.5 
r157 1433 1442 0.0314855 
r158 1592 1431 0.273962 
r159 1431 1429 0.273962 
r160 1429 1427 0.273962 
r161 1427 1425 0.261509 
r162 1423 1425 1.5 
r163 1423 1427 1.5 
r164 1423 1429 1.5 
r165 1423 1431 1.5 
r166 1586 1422 0.000747664 
r167 1420 1422 0.2 
r168 1420 1423 0.0334274 
r169 1417 1420 0.01361 
r170 1411 1600 1.5 
r171 1411 1598 1.5 
r172 1411 1601 1.5 
r173 1409 1411 0.0694058 
r174 1403 1591 1.5 
r175 1403 1589 1.5 
r176 1403 1409 0.0805639 
r177 1403 1592 1.5 
r178 1399 1584 0.2 
r179 1399 1403 0.0404834 
r180 1396 1399 0.0165962 
r181 1395 1464 0.0234268 
r182 1395 1411 0.0330312 
r183 1392 1613 0.5 
r184 1389 1392 0.181 
r185 1387 1570 0.0183007 
r186 1471 1387 0.00174292 
r187 1385 1387 1.5 
r188 1385 1389 0.17 
r189 1384 1449 0.5293 
r190 1380 1382 0.0526456 
r191 1377 1380 0.0552365 
r192 1360 1362 0.12 
r193 1354 1357 3 
r194 1527 1354 0.0677429 
r195 1352 1354 3 
r196 1527 1344 0.1116 
r197 1558 1344 0.0028 
r198 1342 1344 6 
r199 1321 1522 6 
r200 1316 1318 6 
r201 1316 1321 0.752258 
r202 1313 1362 0.02 
r203 1310 1360 0.02 
r204 1310 1311 2.92286 
r205 1303 1318 2.907 
r206 1301 1303 0.0448005 
r207 1301 1302 0.685977 
r208 1297 1302 0.050458 
r209 1297 1298 0.12 
r210 1258 1558 0.2648 
r211 1257 1558 0.2664 
r212 1256 1558 0.2664 
r213 1249 1298 7.46512 
r214 1248 1298 7.46512 
r215 1063 1070 1 
r216 1060 1348 3 
r217 1057 1060 0.2885 
r218 1057 1328 2 
r219 1524 1054 1.03355 
r220 1054 1332 1.2 
r221 1049 1050 2.0225 
r222 1048 1049 0.6265 
r223 1342 1016 0.000149533 
r224 1384 1015 0.0555566 
r225 1015 1016 6 
r226 1014 1357 0.0444444 
r227 1352 1014 7.40741e-05 
r228 1384 1013 0.0279474 
r229 1013 1014 1.5 
r230 1328 1012 0.000233918 
r231 1450 1012 2 
r232 1332 1010 0.000114123 
r233 1449 1010 1.2 
r234 1070 1008 0.000100503 
r235 1451 1008 1 
r236 1348 1006 0.000299625 
r237 1450 1006 3 
r238 1324 1003 6 
r239 1324 1000 0.804286 
r240 1000 1524 6 
r241 1313 998 0.787143 
r242 998 1049 6 
r243 997 1068 0.0561431 
r244 1311 997 6 
r245 1306 995 6 