* File: pc3t04d.dist.sp.pex
* Created: Sun Jul  4 12:48:40 2010
* Program "Calibre xRC"
* Version "v2008.4_19.14"
* Nominal Temperature: 27C
* Circuit Temperature: 27C
* 
.subckt PM_PC3T04D%net_m20_VSSO_res 43 68 75 80 87 122
c0 122 0 0.73297f
c1 119 0 0.40586f
c2 117 0 0.11193f
c3 101 0 0.0628754f
c4 91 0 0.2354f
c5 87 0 0.519409f
c6 85 0 0.240683f
c7 84 0 0.158208f
c8 80 0 0.519409f
c9 75 0 0.519409f
c10 73 0 0.170747f
c11 72 0 0.165025f
c12 68 0 0.733874f
c13 43 0 0.578403f
c14 41 0 0.0479983f
c15 40 0 0.374599f
r16 117 119 0.0223492 
r17 114 117 0.129412 
r18 102 122 85 
r19 95 119 6.90667 
r20 94 96 5.17241 
r21 94 95 1.55172 
r22 93 94 11.1034 
r23 92 101 2.23066 
r24 91 102 3.37824 
r25 91 92 10.8571 
r26 86 101 0.93595 
r27 86 87 85 
r28 85 96 2.89655 
r29 84 101 2.23066 
r30 84 85 10.8571 
r31 79 96 1.55172 
r32 79 80 85 
r33 74 93 1.55172 
r34 74 75 85 
r35 72 93 2.89655 
r36 72 73 10.8571 
r37 67 73 3.37824 
r38 67 68 85 
r39 42 43 0.18 
r40 114 41 0.0446983 
r41 40 42 0.0446983 
r42 40 41 0.521176 
.ends

.subckt PM_PC3T04D%net_m70_VDDO_res 8 39
c0 39 0 2.0905f
c1 34 0 1.32523f
c2 18 0 0.0821581f
c3 15 0 0.173582f
c4 10 0 0.067907f
c5 9 0 0.736448f
c6 8 0 0.371599f
c7 6 0 0.18266f
r8 36 39 3.87662 
r9 17 34 43.5 
r10 16 34 49.5 
r11 18 15 16.5 
r12 11 18 4.13452 
r13 10 16 3.35237 
r14 9 15 3.35237 
r15 9 10 56.025 
r16 11 8 6.95493 
r17 7 36 1.62175 
r18 7 8 5.625 
r19 6 17 3.35237 
r20 6 8 5.625 
.ends

.subckt PM_PC3T04D%U28_padr 12 60 64 72 138 140 142 188
c0 277 0 16.1577f
c1 272 0 9.28547f
c2 265 0 1.97918f
c3 261 0 15.936f
c4 253 0 6.63134f
c5 250 0 0.163811f
c6 247 0 0.147208f
c7 243 0 5.63964f
c8 241 0 0.516512f
c9 239 0 0.0693806f
c10 238 0 0.207306f
c11 237 0 0.410871f
c12 232 0 0.680744f
c13 226 0 0.980093f
c14 220 0 2.09691f
c15 214 0 0.487407f
c16 203 0 0.616942f
c17 200 0 0.42094f
c18 195 0 0.0770692f
c19 194 0 0.490096f
c20 191 0 0.668083f
c21 189 0 0.703602f
c22 188 0 5.5788e-21
c23 165 0 0.0984887f
c24 158 0 0.0817276f
c25 150 0 16.0789f
c26 142 0 1.05383f
c27 140 0 0.574049f
c28 138 0 1.02285f
c29 112 0 0.134724f
c30 108 0 0.430734f
c31 105 0 0.564658f
c32 104 0 0.372633f
c33 102 0 0.104294f
c34 99 0 1.74545f
c35 98 0 0.650152f
c36 95 0 0.397186f
c37 92 0 0.0454778f
c38 91 0 0.0323187f
c39 90 0 0.0867402f
c40 85 0 0.111602f
c41 82 0 0.0980186f
c42 78 0 0.315542f
c43 76 0 0.0685709f
c44 75 0 0.0999152f
c45 72 0 1.28207f
c46 69 0 0.0427046f
c47 68 0 0.378659f
c48 64 0 2.46764f
c49 60 0 1.52885f
c50 19 0 0.153394f
c51 18 0 0.038327f
c52 17 0 0.0462643f
c53 16 0 0.0884342f
c54 12 0 1.07231f
r55 277 263 0.172857 
r56 261 263 6 
r57 257 259 3.96667 
r58 253 277 2 
r59 251 253 10.3129 
r60 245 247 0.10375 
r61 272 243 0.185079 
r62 241 243 1.2 
r63 240 241 0.482857 
r64 238 240 0.0446983 
r65 238 239 0.125714 
r66 237 239 0.0446983 
r67 232 265 6 
r68 230 250 0.15871 
r69 230 232 0.867097 
r70 228 261 1.70133 
r71 259 228 9.30933 
r72 226 228 6 
r73 250 226 1.56387 
r74 213 247 0.02 
r75 213 214 0.755 
r76 209 245 0.02 
r77 202 265 2.38452 
r78 194 202 0.0446983 
r79 194 195 0.619355 
r80 191 195 0.0456388 
r81 190 200 0.0200258 
r82 190 191 0.791 
r83 189 272 0.18836 
r84 188 200 0.00412903 
r85 149 150 1.07733 
r86 130 142 168.333 
r87 130 165 3.92502 
r88 125 140 51.6667 
r89 124 125 1.66667 
r90 117 138 168.333 
r91 158 117 3.6393 
r92 220 112 6 
r93 109 223 0.8025 
r94 220 109 2.8475 
r95 109 150 6 
r96 108 165 0.77 
r97 223 108 6 
r98 105 218 1.2525 
r99 105 259 6 
r100 104 158 0.7825 
r101 218 104 6 
r102 214 102 6 
r103 99 211 0.8 
r104 209 99 2.045 
r105 99 149 6 
r106 211 98 6 
r107 95 207 0.482667 
r108 95 257 6 
r109 94 149 3.09467 
r110 207 94 6 
r111 92 112 0.05 
r112 88 90 0.12 
r113 88 98 0.8825 
r114 86 102 0.04375 
r115 85 86 0.02 
r116 83 85 0.10375 
r117 82 92 0.0446983 
r118 81 91 0.0338756 
r119 81 82 0.1875 
r120 78 124 1.16667 
r121 77 91 0.0338756 
r122 77 78 0.245 
r123 75 91 0.00880368 
r124 75 76 0.25 
r125 71 76 0.0446983 
r126 71 72 1.2575 
r127 70 72 1.3775 
r128 68 70 0.0447588 
r129 68 69 0.544 
r130 90 64 2.375 
r131 59 83 0.02 
r132 59 60 1.40875 
r133 58 69 0.0447588 
r134 58 60 1.3775 
r135 203 21 0.30381 
r136 19 21 3 
r137 18 19 0.109474 
r138 251 17 0.0446983 
r139 18 16 0.0456991 
r140 16 17 0.147143 
r141 13 237 0.407619 
r142 13 203 0.0446983 
r143 189 12 0.0147368 
.ends

.subckt PM_PC3T04D%VSSO 169 332 495 594 619 623 673 958 962 969 998 1005 1017
+ 1029 1031 1036 1041 1047 1053 1059 1065 1074 1080 1086 1092 1098 1107 1113 1119
+ 1126 1132 1144 1200 1206 1210 1216
c0 1216 0 31.9626f
c1 1203 0 1.98471f
c2 1200 0 46.797f
c3 1179 0 7.95483f
c4 1177 0 6.9835f
c5 1171 0 6.97074f
c6 1166 0 6.97241f
c7 1160 0 6.97348f
c8 1155 0 6.97543f
c9 1144 0 0.00189383f
c10 1139 0 8.95235f
c11 1132 0 0.342408f
c12 1126 0 0.33912f
c13 1119 0 1.36597f
c14 1113 0 1.40025f
c15 1098 0 1.35721f
c16 1092 0 1.35624f
c17 1086 0 1.34294f
c18 1080 0 1.10092f
c19 1065 0 1.80865f
c20 1059 0 0.838722f
c21 1053 0 1.38238f
c22 1047 0 1.3086f
c23 1041 0 1.55632f
c24 1036 0 1.69055f
c25 1034 0 2.28529f
c26 1029 0 8.25608e-19
c27 1027 0 8.96457f
c28 1015 0 7.90632f
c29 1011 0 1.27875f
c30 1001 0 1.65699f
c31 998 0 58.4722f
c32 965 0 1.3481f
c33 962 0 10.6731f
c34 949 0 0.112203f
c35 948 0 0.0401513f
c36 947 0 1.53621f
c37 945 0 0.0510217f
c38 944 0 0.330224f
c39 943 0 0.675001f
c40 934 0 5.32849f
c41 930 0 0.708327f
c42 928 0 3.2621f
c43 926 0 0.383003f
c44 925 0 0.713156f
c45 924 0 0.305458f
c46 923 0 3.26982f
c47 922 0 0.383249f
c48 921 0 0.0465497f
c49 920 0 0.185024f
c50 919 0 0.322687f
c51 889 0 0.122915f
c52 888 0 8.99123f
c53 858 0 0.284424f
c54 854 0 7.03694f
c55 850 0 0.146306f
c56 677 0 0.111455f
c57 673 0 0.593769f
c58 644 0 0.881365f
c59 642 0 0.101664f
c60 640 0 0.0361692f
c61 638 0 1.44183f
c62 637 0 0.0306886f
c63 636 0 0.346472f
c64 623 0 0.765462f
c65 619 0 0.554379f
c66 615 0 0.0481945f
c67 614 0 0.440554f
c68 594 0 0.114597f
c69 587 0 0.121434f
c70 508 0 6.69178f
c71 410 0 14.0344f
c72 360 0 14.0436f
c73 247 0 14.0378f
c74 197 0 14.0362f
c75 34 0 14.0395f
c76 10 0 0.146306f
r77 1214 1216 0.00282778 
r78 1213 1214 0.355444 
r79 1210 1213 0.00283333 
r80 1205 1207 0.0106667 
r81 1205 1206 0.02 
r82 1203 1205 0.0143333 
r83 1197 1198 0.12369 
r84 1196 1197 0.0425134 
r85 1195 1196 0.0396791 
r86 1194 1195 0.043262 
r87 1193 1194 0.0347594 
r88 1192 1193 0.0198396 
r89 1191 1192 0.0750802 
r90 1190 1191 0.0253476 
r91 1189 1190 0.028877 
r92 1188 1189 0.0373797 
r93 1187 1188 0.0226738 
r94 1186 1187 0.0226203 
r95 1185 1186 0.0203209 
r96 1184 1185 0.0213904 
r97 1183 1203 0.02 
r98 1183 1184 0.0720856 
r99 1148 1149 0.0140639 
r100 1143 1144 0.0126606 
r101 1179 1141 0.0113761 
r102 1139 1141 0.0638298 
r103 1136 1198 2 
r104 1132 1136 0.000380952 
r105 1126 1197 2 
r106 1122 1196 0.6 
r107 1119 1122 0.285 
r108 1116 1195 0.6 
r109 1113 1116 0.32 
r110 1101 1194 0.6 
r111 1098 1101 0.36 
r112 1095 1193 0.6 
r113 1092 1095 0.37 
r114 1089 1191 0.6 
r115 1086 1089 0.3225 
r116 1083 1190 0.6 
r117 1080 1083 0.325 
r118 1068 1189 0.6 
r119 1065 1068 0.3425 
r120 1062 1188 0.75 
r121 1059 1062 0.04 
r122 1056 1187 0.6 
r123 1053 1056 0.365 
r124 1050 1186 0.6 
r125 1047 1050 0.194286 
r126 1044 1185 0.6 
r127 1041 1044 0.3175 
r128 1038 1184 0.666667 
r129 1036 1038 0.96 
r130 1029 1143 0.013211 
r131 1139 1029 0.000917431 
r132 1027 1029 0.000913242 
r133 1027 1148 0.0638298 
r134 1016 1017 0.02 
r135 1015 1148 0.0113242 
r136 1013 1015 0.0327869 
r137 1013 1016 0.0166784 
r138 1011 1013 0.029258 
r139 1008 1214 0.357143 
r140 1005 1008 0.21 
r141 1003 1200 0.00544385 
r142 1198 1003 0.0345455 
r143 1001 1003 1 
r144 1001 1005 0.445 
r145 996 998 0.00612761 
r146 996 1179 0.0327869 
r147 1173 994 0.00301483 
r148 994 1177 0.00301741 
r149 992 994 0.0266667 
r150 992 996 0.0287785 
r151 1107 991 0.130435 
r152 991 1171 0.00301741 
r153 1168 991 0.00301741 
r154 989 991 0.0266667 
r155 989 992 0.0242129 
r156 1162 988 0.00301483 
r157 988 1166 0.00301741 
r158 986 988 0.0266667 
r159 986 989 0.0242129 
r160 985 986 0.000615582 
r161 1074 984 0.130435 
r162 984 1160 0.00301741 
r163 1157 984 0.00301741 
r164 982 984 0.0266667 
r165 982 985 0.0235973 
r166 1151 981 0.00301483 
r167 981 1155 0.00301741 
r168 979 981 0.0266667 
r169 979 982 0.0242129 
r170 978 1011 0.02 
r171 978 979 0.0277012 
r172 1016 975 0.429445 
r173 972 1213 0.357143 
r174 969 972 0.21 
r175 967 1209 0.144409 
r176 1207 967 0.034 
r177 965 967 1 
r178 965 969 0.445 
r179 948 949 0.1275 
r180 947 948 0.0448391 
r181 946 947 2.75862 
r182 944 946 0.044715 
r183 944 945 0.466667 
r184 943 945 0.0450432 
r185 1209 943 1.29371 
r186 938 1034 6 
r187 935 938 0.784211 
r188 934 955 0.00736842 
r189 934 938 6.43579 
r190 932 1144 0.230275 
r191 930 1139 0.210275 
r192 929 1034 3.40429 
r193 927 1031 0.229041 
r194 927 928 0.0863581 
r195 925 1027 0.209132 
r196 925 926 0.0863581 
r197 932 923 0.0861375 
r198 923 924 0.132033 
r199 930 922 0.0861375 
r200 920 929 0.0446983 
r201 920 921 0.311429 
r202 919 921 0.0449572 
r203 889 1029 0.128 
r204 888 924 0.0473573 
r205 888 1029 0.126 
r206 858 889 0.0473573 
r207 928 858 0.132033 
r208 854 1029 0.126 
r209 853 1036 1.1475 
r210 851 1029 0.128 
r211 850 851 0.0473573 
r212 850 926 0.250407 
r213 677 646 0.00693642 
r214 955 646 6 
r215 1192 644 0.75 
r216 949 642 3 
r217 640 673 0.0494737 
r218 935 640 2 
r219 637 644 0.437895 
r220 637 638 0.0407126 
r221 853 636 0.0338756 
r222 622 677 0.0225434 
r223 622 623 1.14783 
r224 618 619 0.221176 
r225 614 618 0.0446983 
r226 614 615 0.608235 
r227 612 615 0.0446983 
r228 612 638 2.01647 
r229 593 636 0.00880368 
r230 593 594 0.1375 
r231 587 919 0.565 
r232 587 642 0.0265396 
r233 511 962 0.0419737 
r234 958 511 0.0413851 
r235 985 511 0.00128205 
r236 975 508 2.21804 
r237 508 1207 0.6 
r238 994 495 0.130435 
r239 1107 410 0.00313778 
r240 1171 410 0.0652174 
r241 495 400 0.0031351 
r242 1173 400 0.0652174 
r243 360 495 0.00314046 
r244 1177 360 0.0652174 
r245 1141 349 0.0141284 
r246 349 1143 0.0652174 
r247 988 332 0.130435 
r248 1074 247 0.00313778 
r249 1160 247 0.0652174 
r250 332 237 0.0031351 
r251 1162 237 0.0652174 
r252 197 332 0.00314046 
r253 1166 197 0.0652174 
r254 187 1107 0.00313778 
r255 1168 187 0.0652174 
r256 981 169 0.130435 
r257 84 1031 0.0126027 
r258 1029 84 0.0131507 
r259 1149 84 0.0652174 
r260 169 74 0.0031351 
r261 1151 74 0.0652174 
r262 34 169 0.00314046 
r263 1155 34 0.0652174 
r264 24 1074 0.00313778 
r265 1157 24 0.0652174 
r266 10 922 0.250407 
r267 10 854 0.0473573 
.ends

.subckt PM_PC3T04D%VSS 813 858 880 904 909 921 923 928
c0 928 0 92.1656f
c1 921 0 56.8563f
c2 907 0 2.37329f
c3 904 0 0.00368951f
c4 901 0 1.2439f
c5 887 0 16.7312f
c6 876 0 1.88726f
c7 869 0 15.5991f
c8 855 0 1.45971f
c9 827 0 24.8267f
c10 825 0 0.0842555f
c11 824 0 10.3484f
c12 823 0 0.0657505f
c13 822 0 7.44868f
c14 820 0 0.184939f
c15 817 0 0.0372194f
c16 813 0 4.20784f
c17 810 0 0.144425f
c18 808 0 0.578389f
c19 801 0 8.75272f
c20 799 0 0.194438f
c21 798 0 0.100669f
c22 797 0 1.98794f
c23 692 0 2.21441f
c24 688 0 2.46807f
c25 684 0 1.3421f
c26 682 0 0.250086f
c27 680 0 0.276497f
c28 677 0 26.5984f
c29 672 0 0.814991f
c30 671 0 6.34069f
c31 665 0 2.0393f
c32 659 0 0.137389f
c33 658 0 2.48686f
c34 657 0 0.154374f
c35 656 0 2.24749f
c36 573 0 0.162892f
c37 571 0 0.72248f
c38 569 0 0.203897f
c39 544 0 2.94312f
c40 530 0 3.05957f
c41 528 0 0.031054f
c42 525 0 0.571035f
c43 524 0 6.91145f
c44 523 0 0.161087f
c45 508 0 3.75187f
c46 505 0 2.96391f
r47 923 926 0.000703354 
r48 919 921 0.00318245 
r49 918 919 0.00119641 
r50 917 918 0.0758524 
r51 916 917 0.0344168 
r52 915 916 0.167059 
r53 914 915 0.128574 
r54 913 914 0.0141176 
r55 912 913 0.089651 
r56 909 912 0.00438684 
r57 907 919 0.461538 
r58 901 904 1.28857 
r59 901 917 1.5 
r60 895 915 0.0535714 
r61 883 918 0.428571 
r62 880 883 0.189 
r63 878 928 0.000702051 
r64 926 878 0.0832563 
r65 876 878 0.131579 
r66 876 880 0.013 
r67 873 874 0.56934 
r68 872 873 1.12447 
r69 869 872 0.628223 
r70 869 916 0.3 
r71 861 912 0.428571 
r72 858 861 0.189 
r73 855 858 0.013 
r74 855 926 0.131579 
r75 826 849 0.02 
r76 826 827 0.9662 
r77 824 825 0.0338756 
r78 822 895 2.8715 
r79 822 823 0.0338756 
r80 816 825 0.0338756 
r81 815 823 0.0338756 
r82 813 899 2.59036 
r83 897 813 1.07807 
r84 887 813 1.4815 
r85 812 825 0.00880368 
r86 812 813 0.958 
r87 811 823 0.00880368 
r88 811 813 0.986 
r89 820 810 0.0632911 
r90 810 808 0.0574488 
r91 807 817 0.0448201 
r92 804 907 1.518 
r93 803 907 0.426 
r94 801 899 1.08482 
r95 799 897 1.06072 
r96 798 887 1.622 
r97 797 798 0.0448201 
r98 797 807 2.13041 
r99 824 694 0.733 
r100 813 694 1.93 
r101 692 837 3 
r102 689 895 1.612 
r103 817 689 1.283 
r104 689 914 1.5 
r105 897 688 1 
r106 837 684 0.24 
r107 873 684 1.5 
r108 694 682 3 
r109 872 682 3 
r110 680 899 3 
r111 874 680 3 
r112 677 866 1.1314 
r113 677 913 0.125 
r114 676 688 0.0075 
r115 849 676 0.056 
r116 866 676 0.24 
r117 674 820 0.0155975 
r118 827 674 1 
r119 672 816 0.5005 
r120 804 672 0.0446983 
r121 671 815 0.5005 
r122 803 671 0.0446983 
r123 670 692 0.830244 
r124 669 692 0.573659 
r125 664 665 1.37048 
r126 659 670 0.0448242 
r127 659 660 0.678222 
r128 658 665 0.0447675 
r129 658 660 0.650667 
r130 657 669 0.0446983 
r131 656 664 0.0447067 
r132 656 657 1.45854 
r133 572 573 0.147619 
r134 568 569 0.14988 
r135 801 568 0.0380723 
r136 565 567 0.143333 
r137 799 564 0.0385542 
r138 562 564 0.14506 
r139 813 561 0.159 
r140 544 813 0.159 
r141 543 573 0.02 
r142 543 561 1.247 
r143 542 569 0.02 
r144 542 544 1.243 
r145 813 541 0.192 
r146 539 813 0.192 
r147 538 539 0.342 
r148 813 538 0.192 
r149 536 813 0.192 
r150 535 536 0.342 
r151 813 535 0.192 
r152 533 813 0.192 
r153 532 533 0.342 
r154 813 532 0.192 
r155 530 813 0.192 
r156 529 572 0.02 
r157 529 541 1.214 
r158 528 571 0.04 
r159 528 530 0.243 
r160 526 568 0.02 
r161 526 571 0.938734 
r162 674 525 0.102486 
r163 524 572 0.0380952 
r164 524 525 4.80524 
r165 523 808 0.555238 
r166 523 567 0.0380952 
r167 813 519 0.159 
r168 517 813 0.159 
r169 516 517 0.408 
r170 813 516 0.159 
r171 514 813 0.159 
r172 513 514 0.408 
r173 813 513 0.159 
r174 511 813 0.159 
r175 510 511 0.408 
r176 813 510 0.159 
r177 508 813 0.159 
r178 507 567 0.02 
r179 507 519 1.247 
r180 506 564 0.02 
r181 506 508 1.243 
r182 505 565 0.02 
r183 504 562 0.02 
r184 504 505 4.69271 
.ends

.subckt PM_PC3T04D%U28_U42_r1 93 98 140 145 152
c0 234 0 0.100654f
c1 232 0 0.446388f
c2 227 0 0.44555f
c3 222 0 0.346018f
c4 218 0 2.82404f
c5 213 0 0.141582f
c6 210 0 0.240204f
c7 209 0 0.428641f
c8 207 0 0.232617f
c9 205 0 0.0831055f
c10 204 0 0.333776f
c11 201 0 6.43541f
c12 198 0 0.725256f
c13 194 0 1.50583f
c14 193 0 0.725256f
c15 186 0 3.30165f
c16 185 0 0.0777466f
c17 184 0 10.3263f
c18 182 0 0.472173f
c19 180 0 0.408756f
c20 177 0 0.140416f
c21 172 0 0.0742904f
c22 169 0 0.0630044f
c23 161 0 0.171327f
c24 153 0 0.535761f
c25 152 0 0.278026f
c26 148 0 0.609289f
c27 147 0 0.168829f
c28 145 0 3.04886f
c29 140 0 3.04886f
c30 108 0 0.972447f
c31 98 0 3.04886f
c32 97 0 0.168893f
c33 93 0 3.04886f
c34 92 0 0.170554f
r35 211 213 0.1472 
r36 209 213 0.02 
r37 208 209 0.747936 
r38 206 211 0.02 
r39 206 207 0.405333 
r40 204 207 0.0446983 
r41 204 205 0.314667 
r42 201 234 6 
r43 199 205 0.0446983 
r44 199 201 7.00667 
r45 197 232 0.000487805 
r46 229 197 0.055122 
r47 196 198 0.0728393 
r48 196 197 1.5 
r49 195 210 0.101494 
r50 194 198 0.0795789 
r51 194 195 1.466 
r52 193 210 0.0219246 
r53 192 227 0.00292683 
r54 224 192 0.0526829 
r55 191 193 0.0728393 
r56 191 192 1.5 
r57 188 222 3 
r58 186 210 0.101494 
r59 186 188 3.41 
r60 184 208 0.0482946 
r61 184 185 8.83231 
r62 180 182 6 
r63 179 185 0.0501405 
r64 179 180 0.594286 
r65 175 234 0.0490323 
r66 174 177 0.157419 
r67 174 175 0.02 
r68 173 182 0.577143 
r69 172 222 0.261 
r70 172 173 0.0465329 
r71 169 218 6 
r72 167 177 0.02 
r73 167 169 0.0490323 
r74 166 218 3.99613 
r75 165 166 0.026898 
r76 161 165 0.10143 
r77 161 152 0.106667 
r78 148 153 5.05882 
r79 147 153 5.05882 
r80 142 148 3.88985 
r81 142 145 183.96 
r82 137 147 3.88985 
r83 137 140 183.96 
r84 103 108 5.05882 
r85 102 108 5.05882 
r86 97 103 3.88985 
r87 97 98 183.96 
r88 92 102 3.88985 
r89 92 93 183.96 
r90 153 63 0.00142683 
r91 227 63 3 
r92 108 52 0.00133393 
r93 229 52 3 
r94 34 108 0.0278113 
r95 232 34 3 
r96 153 9 0.0277856 
r97 224 9 3 
.ends

.subckt PM_PC3T04D%net_m69_VDDO_res 7 33
c0 33 0 1.649f
c1 29 0 0.143209f
c2 17 0 0.181212f
c3 16 0 0.791098f
c4 15 0 1.71543f
c5 14 0 0.0798123f
c6 10 0 0.0749364f
c7 9 0 0.111774f
c8 7 0 0.368581f
r9 16 33 2.05452 
r10 16 17 8.75861 
r11 15 29 66.7742 
r12 14 29 60.5806 
r13 11 15 3.35663 
r14 11 17 11.5758 
r15 10 14 3.35347 
r16 9 10 6.625 
r17 6 9 4.5965 
r18 6 7 4.56364 
.ends

.subckt PM_PC3T04D%VDDO 21 828 896 907 918 929 940 951 962 977 1218 1237 1240
+ 1249 1254 1261 1288 1353 1359 1661 1665 1668 1672 1680 1687 1694 1703 1713 1726
+ 1732 1738 1744 1750 1756 1762 1768 1815 1831 1834 1839
c0 1839 0 20.8083f
c1 1831 0 50.969f
c2 1811 0 2.98997f
c3 1780 0 9.63308f
c4 1768 0 1.38187f
c5 1762 0 2.71574f
c6 1756 0 1.36358f
c7 1750 0 1.72178f
c8 1744 0 1.95846f
c9 1738 0 0.814504f
c10 1732 0 1.85104f
c11 1726 0 2.41799f
c12 1723 0 3.08944f
c13 1710 0 0.505396f
c14 1706 0 30.2969f
c15 1705 0 1.942f
c16 1703 0 63.2768f
c17 1686 0 51.1375f
c18 1676 0 0.598136f
c19 1675 0 1.39755f
c20 1672 0 3.00492f
c21 1665 0 2.5051f
c22 1654 0 0.331825f
c23 1650 0 0.149621f
c24 1644 0 0.23522f
c25 1640 0 0.619196f
c26 1636 0 0.338267f
c27 1632 0 0.191708f
c28 1628 0 0.62042f
c29 1622 0 3.157f
c30 1620 0 0.722105f
c31 1615 0 2.4172f
c32 1611 0 2.45298f
c33 1609 0 3.62446f
c34 1608 0 0.0923524f
c35 1607 0 0.0453308f
c36 1606 0 0.666223f
c37 1603 0 0.224638f
c38 1565 0 9.76182f
c39 1556 0 0.893141f
c40 1376 0 8.16f
c41 1353 0 0.458636f
c42 1312 0 4.04762f
c43 1308 0 2.38762f
c44 1302 0 0.285411f
c45 1298 0 0.00605517f
c46 1296 0 8.0608f
c47 1295 0 3.35297f
c48 1290 0 1.01196f
c49 1287 0 0.0193183f
c50 1285 0 0.0208492f
c51 1284 0 5.72043f
c52 1281 0 0.192794f
c53 1271 0 0.0969917f
c54 1268 0 0.0596675f
c55 1267 0 3.19809f
c56 1266 0 1.12253f
c57 1261 0 1.4401f
c58 1258 0 0.451293f
c59 1254 0 1.37571f
c60 1240 0 0.337442f
c61 1237 0 0.66469f
c62 1235 0 0.0459809f
c63 1234 0 0.542741f
c64 1233 0 0.0297441f
c65 1232 0 0.465594f
c66 1231 0 0.231512f
c67 1218 0 1.417f
c68 1124 0 3.54157f
c69 1089 0 5.48591f
c70 1074 0 1.29937f
c71 1070 0 0.657304f
c72 1066 0 8.82377f
c73 1064 0 6.89048f
c74 1062 0 0.588747f
c75 1056 0 0.170971f
c76 1053 0 0.0533066f
c77 1051 0 0.109209f
c78 977 0 7.10179f
c79 969 0 7.25869f
c80 966 0 11.8046f
c81 955 0 19.7068f
c82 951 0 0.00989968f
c83 944 0 19.7073f
c84 940 0 0.00989968f
c85 933 0 19.7342f
c86 929 0 0.00989968f
c87 922 0 19.5401f
c88 918 0 0.0231487f
c89 911 0 19.72f
c90 907 0 0.0106158f
c91 900 0 12.0292f
c92 896 0 0.00828265f
c93 853 0 0.210878f
c94 816 0 0.0533066f
c95 805 0 0.114758f
c96 804 0 6.34573f
c97 801 0 0.103657f
c98 800 0 6.27475f
c99 21 0 0.61469f
c100 17 0 0.486838f
c101 16 0 6.74058f
c102 7 0 0.152029f
c103 6 0 6.76785f
r104 1834 1837 0.00394881 
r105 1828 1829 0.3261 
r106 1827 1828 0.0205664 
r107 1826 1827 0.0338998 
r108 1825 1826 0.0357734 
r109 1824 1825 0.0124619 
r110 1823 1824 0.035512 
r111 1822 1823 0.0354684 
r112 1821 1822 0.013159 
r113 1820 1821 0.0256209 
r114 1813 1831 0.00304139 
r115 1829 1813 0.00174292 
r116 1811 1813 0.461538 
r117 1776 1777 1.26323 
r118 1771 1828 0.6 
r119 1768 1771 0.4475 
r120 1765 1827 0.6 
r121 1762 1765 1.6625 
r122 1759 1826 0.666667 
r123 1756 1759 0.365 
r124 1753 1825 0.545455 
r125 1750 1753 1.4825 
r126 1747 1824 0.545455 
r127 1744 1747 1.63 
r128 1741 1823 0.75 
r129 1738 1741 0.1575 
r130 1735 1822 0.75 
r131 1732 1735 1.1525 
r132 1729 1821 0.5 
r133 1726 1729 1.455 
r134 1815 1725 0.00305011 
r135 1723 1725 0.461538 
r136 1717 1839 0.0039415 
r137 1837 1717 0.467422 
r138 1715 1717 0.5 
r139 1713 1715 0.181 
r140 1710 1713 0.17 
r141 1710 1829 1.5 
r142 1707 1708 0.5433 
r143 1706 1707 0.2247 
r144 1705 1708 0.099 
r145 1701 1703 0.0136564 
r146 1700 1701 0.0314855 
r147 1699 1700 0.0601494 
r148 1698 1699 0.0634357 
r149 1697 1698 0.0334274 
r150 1694 1697 0.01361 
r151 1683 1837 0.5 
r152 1680 1683 0.181 
r153 1678 1820 0.0183007 
r154 1725 1678 0.00174292 
r155 1676 1678 1.5 
r156 1676 1680 0.17 
r157 1675 1706 0.5293 
r158 1656 1659 3 
r159 1780 1656 0.0677429 
r160 1654 1656 3 
r161 1780 1646 0.1116 
r162 1808 1646 0.0028 
r163 1644 1646 6 
r164 1625 1776 6 
r165 1620 1622 6 
r166 1620 1625 0.752258 
r167 1610 1622 2.907 
r168 1608 1776 8.46452 
r169 1608 1609 0.0324243 
r170 1606 1610 0.0448005 
r171 1606 1607 0.685977 
r172 1602 1607 0.050458 
r173 1602 1603 0.12 
r174 1565 1808 0.2648 
r175 1564 1808 0.2664 
r176 1563 1808 0.2664 
r177 1556 1603 7.46512 
r178 1555 1603 7.46512 
r179 1777 1376 1.03355 
r180 1376 1640 1.2 
r181 1372 1636 1 
r182 1369 1650 3 
r183 1366 1369 0.2885 
r184 1366 1632 2 
r185 1644 1325 0.000149533 
r186 1675 1324 0.0555566 
r187 1324 1325 6 
r188 1323 1659 0.0444444 
r189 1654 1323 7.40741e-05 
r190 1675 1322 0.0279474 
r191 1322 1323 1.5 
r192 1632 1321 0.000233918 
r193 1707 1321 2 
r194 1640 1319 0.000114123 
r195 1706 1319 1.2 
r196 1636 1317 0.000100503 
r197 1708 1317 1 
r198 1650 1315 0.000299625 
r199 1707 1315 3 
r200 1628 1312 6 
r201 1628 1309 0.804286 
r202 1309 1777 6 
r203 1615 1308 3 
r204 1306 1359 1.278 
r205 1357 1306 1.371 
r206 1618 1306 6 
r207 1303 1618 2.64235 
r208 1615 1303 0.494118 
r209 1303 1609 6 
r210 1611 1302 6 
r211 1611 1299 3.395 
r212 1299 1357 6 
r213 1298 1353 0.0484211 
r214 1820 1298 2 
r215 1296 1372 0.219259 
r216 1295 1369 0.0845 
r217 1294 1312 5.04429 
r218 1288 1290 0.605623 
r219 1286 1366 1.917 
r220 1286 1287 0.0149881 
r221 1284 1359 0.4775 
r222 1284 1285 0.013668 
r223 1283 1308 2.73294 
r224 1279 1302 0.175 
r225 1278 1281 0.1525 
r226 1278 1279 0.02 
r227 1271 1357 0.563 
r228 1270 1811 0.526 
r229 1270 1296 0.0447005 
r230 1269 1811 2.122 
r231 1269 1295 0.0446983 
r232 1267 1294 0.0446983 
r233 1267 1268 3.31857 
r234 1288 1266 0.584127 
r235 1265 1268 0.0446983 
r236 1265 1266 1.02286 
r237 1260 1287 0.0313149 
r238 1260 1261 1.51 
r239 1259 1285 0.013668 
r240 1258 1287 0.0149881 
r241 1258 1259 0.2995 
r242 1253 1285 0.0337919 
r243 1253 1254 1.64138 
r244 1290 1249 1.36714 
r245 1237 1240 0.81913 
r246 1236 1240 0.309565 
r247 1234 1283 0.0468981 
r248 1234 1235 1.01391 
r249 1232 1236 0.0446983 
r250 1232 1233 1.03304 
r251 1231 1235 0.0446983 
r252 1230 1233 0.0446983 
r253 1230 1231 0.509565 
r254 1217 1281 0.02 
r255 1217 1218 1.3925 
r256 1211 1723 2.122 
r257 1211 1271 0.0446983 
r258 1126 1127 0.490516 
r259 1125 1126 0.232864 
r260 1124 1125 0.279437 
r261 1115 1116 0.279231 
r262 1114 1115 0.2665 
r263 1105 1106 0.273962 
r264 1104 1105 0.261472 
r265 1091 1092 0.278131 
r266 1088 1672 0.0526456 
r267 1668 1088 0.0552365 
r268 1699 1088 0.00227273 
r269 1697 1086 3 
r270 1697 1084 0.666667 
r271 1698 1082 1.5 
r272 1700 1080 1.5 
r273 1701 1078 3 
r274 1701 1076 3 
r275 1701 1074 2 
r276 1072 1665 0.0620926 
r277 1661 1072 0.0688218 
r278 1692 1072 0.0025 
r279 1066 1104 3.77358e-05 
r280 1064 1114 3.84615e-05 
r281 1056 1124 0.117559 
r282 1055 1056 0.119812 
r283 1055 1062 0.181784 
r284 1054 1076 0.0101408 
r285 1053 1074 0.122066 
r286 1052 1089 0.0616822 
r287 1051 1052 0.08 
r288 1051 1070 0.274084 
r289 980 982 0.0829907 
r290 980 1127 0.1 
r291 982 977 0.159252 
r292 977 989 0.159252 
r293 977 980 0.0291589 
r294 969 977 0.159252 
r295 966 1080 1.5 
r296 962 966 0.793846 
r297 959 962 0.842637 
r298 959 1082 1.5 
r299 951 955 0.55145 
r300 948 951 0.585344 
r301 940 944 0.55145 
r302 937 940 0.585344 
r303 929 933 0.55145 
r304 926 929 0.585344 
r305 922 1116 1.5 
r306 918 922 0.55145 
r307 915 918 0.585344 
r308 915 1106 1.5 
r309 911 1115 1.5 
r310 907 911 0.55145 
r311 904 907 0.585344 
r312 904 1105 1.5 
r313 900 1114 1.5 
r314 896 900 0.793846 
r315 893 896 0.842637 
r316 893 1104 1.5 
r317 888 1096 0.2 
r318 977 888 0.0391734 
r319 871 1091 0.185047 
r320 1089 871 0.0930841 
r321 869 871 0.2 
r322 869 977 0.0397569 
r323 859 1084 0.231776 
r324 1096 859 0.232523 
r325 1697 859 1 
r326 948 857 1.5 
r327 857 1082 0.261509 
r328 1698 857 1.5 
r329 955 855 1.5 
r330 855 1080 0.266538 
r331 1700 855 1.5 
r332 1701 853 1 
r333 851 1096 0.231028 
r334 1086 851 0.278131 
r335 1697 851 0.6 
r336 937 849 1.5 
r337 849 857 0.273962 
r338 1698 849 1.5 
r339 944 847 1.5 
r340 847 855 0.279231 
r341 1700 847 1.5 
r342 845 1076 0.279437 
r343 1078 845 0.279437 
r344 1701 845 0.6 
r345 843 1086 0.139065 
r346 1092 843 0.683365 
r347 1697 843 2 
r348 926 841 1.5 
r349 841 849 0.273962 
r350 1106 841 0.273962 
r351 1698 841 1.5 
r352 933 839 1.5 
r353 839 847 0.279231 
r354 1116 839 0.279231 
r355 1700 839 1.5 
r356 837 1078 0.232864 
r357 1127 837 0.139343 
r358 1701 837 0.857143 
r359 834 1091 2 
r360 834 1089 0.666667 
r361 834 1070 0.666667 
r362 1687 834 0.0165962 
r363 834 1092 0.666667 
r364 832 1105 1.5 
r365 832 1066 1.5 
r366 832 1692 0.0805639 
r367 834 832 0.0404834 
r368 832 1106 1.5 
r369 830 1115 1.5 
r370 830 1064 1.5 
r371 1686 830 0.0330312 
r372 1692 830 0.0694058 
r373 830 1116 1.5 
r374 828 1125 3 
r375 828 1124 0.666667 
r376 828 1062 0.6 
r377 828 1705 0.0532592 
r378 828 1686 0.0241042 
r379 828 1126 0.666667 
r380 818 853 0.0239252 
r381 818 1053 0.04 
r382 816 853 0.135327 
r383 816 1054 0.04 
r384 811 989 0.73271 
r385 810 969 0.737944 
r386 809 977 0.73271 
r387 808 977 0.737944 
r388 805 809 0.0451326 
r389 805 977 2.504 
r390 804 811 0.0451326 
r391 804 977 2.44889 
r392 801 808 0.045921 
r393 801 977 2.687 
r394 800 810 0.045921 
r395 800 977 2.885 
r396 21 1556 1.36978 
r397 21 1555 1.36978 
r398 17 1808 1.51848 
r399 16 1565 0.0447329 
r400 16 1808 1.51162 
r401 15 1656 0.0737243 
r402 15 17 0.0447329 
r403 1564 7 0.0447329 
r404 7 1808 1.51848 
r405 6 1563 0.0447329 
r406 6 1808 1.51162 
.ends

.subckt PM_PC3T04D%U28_U72_pgate 22 41 72 91 122 141 209 211 238 249 285 291
+ 296
c0 423 0 0.414046f
c1 420 0 0.306758f
c2 418 0 0.307529f
c3 417 0 0.307529f
c4 415 0 0.307529f
c5 414 0 0.28749f
c6 411 0 4.75712f
c7 409 0 0.219869f
c8 407 0 0.150262f
c9 405 0 15.9998f
c10 383 0 0.101609f
c11 379 0 5.928f
c12 377 0 2.03718f
c13 373 0 3.86527f
c14 370 0 0.0347659f
c15 365 0 0.831484f
c16 355 0 3.00169f
c17 353 0 0.0612176f
c18 352 0 0.0386035f
c19 344 0 0.730208f
c20 331 0 4.59927f
c21 328 0 0.146501f
c22 327 0 0.0572348f
c23 322 0 0.0938002f
c24 318 0 0.0256146f
c25 317 0 0.0466741f
c26 315 0 0.0747429f
c27 312 0 2.26342f
c28 310 0 0.0584785f
c29 309 0 0.358339f
c30 303 0 0.0477113f
c31 300 0 0.329841f
c32 296 0 1.50772f
c33 291 0 0.973496f
c34 289 0 0.0415798f
c35 288 0 0.375008f
c36 287 0 0.161952f
c37 285 0 1.51477f
c38 249 0 2.52503f
c39 243 0 1.55677f
c40 238 0 2.26197f
c41 236 0 0.0535543f
c42 235 0 0.401006f
c43 207 0 5.10206f
c44 198 0 4.80814f
c45 197 0 0.371977f
c46 191 0 0.405378f
c47 185 0 0.370539f
c48 135 0 0.309607f
c49 126 0 4.91766f
c50 124 0 0.105999f
c51 116 0 0.309607f
c52 107 0 4.91903f
c53 105 0 0.105999f
c54 85 0 0.309607f
c55 76 0 4.91903f
c56 74 0 0.105999f
c57 66 0 0.309607f
c58 57 0 4.92132f
c59 55 0 0.106492f
c60 35 0 0.293407f
c61 26 0 4.88963f
c62 24 0 0.105999f
c63 16 0 4.85834f
c64 7 0 4.97021f
c65 5 0 0.112859f
r66 420 421 0.32439 
r67 417 418 0.32839 
r68 414 415 0.32839 
r69 405 407 6 
r70 381 383 0.0341463 
r71 377 379 6 
r72 376 383 0.02 
r73 376 377 3.54667 
r74 373 407 6 
r75 371 381 0.02 
r76 371 373 5.05333 
r77 369 379 10.4077 
r78 368 423 0.219512 
r79 421 368 0.16439 
r80 366 368 6 
r81 365 370 0.0142174 
r82 365 366 0.21561 
r83 364 420 0.219512 
r84 418 364 0.16039 
r85 362 364 6 
r86 361 417 0.219512 
r87 415 361 0.16039 
r88 359 361 6 
r89 359 362 0.708293 
r90 357 414 0.219512 
r91 411 357 0.16039 
r92 355 357 6 
r93 355 359 0.708293 
r94 354 370 0.0142174 
r95 354 362 0.462439 
r96 353 369 0.0446983 
r97 352 370 0.0327344 
r98 352 353 0.149677 
r99 349 409 6 
r100 346 405 3.37032 
r101 402 346 11.4052 
r102 344 346 6 
r103 344 349 1.15143 
r104 341 399 6 
r105 338 341 0.708293 
r106 338 396 6 
r107 335 338 0.708293 
r108 335 393 6 
r109 331 335 0.708293 
r110 331 390 6 
r111 327 328 0.12 
r112 324 327 0.0451268 
r113 320 409 0.211429 
r114 319 322 0.0785714 
r115 319 320 0.02 
r116 311 322 0.02 
r117 311 312 3.31571 
r118 309 312 0.0461631 
r119 309 310 0.30026 
r120 304 318 0.0327921 
r121 303 318 0.0327921 
r122 302 310 0.0449793 
r123 302 303 0.0943284 
r124 301 317 0.0343218 
r125 300 318 0.00972501 
r126 300 301 0.514286 
r127 295 317 0.00843222 
r128 295 296 1.59625 
r129 290 315 0.0200702 
r130 290 291 1.20375 
r131 288 317 0.0343218 
r132 288 289 0.614603 
r133 287 315 0.0982456 
r134 286 289 0.0452323 
r135 286 287 0.395385 
r136 304 285 1.59625 
r137 249 246 2.3375 
r138 328 246 6 
r139 324 243 2.67 
r140 243 402 6 
r141 242 249 2.0425 
r142 237 238 2.0425 
r143 236 242 0.0446983 
r144 235 237 0.0446983 
r145 235 236 0.51 
r146 207 211 394.95 
r147 423 206 2.81176 
r148 206 207 1.5 
r149 198 209 394.95 
r150 197 421 2.74706 
r151 197 198 1.5 
r152 195 211 394.95 
r153 194 195 1.5 
r154 399 191 0.219512 
r155 191 194 2.78235 
r156 188 399 0.164878 
r157 186 209 394.95 
r158 185 188 2.74706 
r159 185 186 1.5 
r160 135 188 0.323902 
r161 396 135 0.219512 
r162 127 420 2.07647 
r163 126 141 394.95 
r164 126 127 4.2601 
r165 125 135 2.07647 
r166 124 141 394.95 
r167 124 125 4.2601 
r168 116 396 0.160878 
r169 108 418 2.07647 
r170 107 122 394.95 
r171 107 108 4.2601 
r172 106 116 2.07647 
r173 105 122 394.95 
r174 105 106 4.2601 
r175 85 116 0.327902 
r176 393 85 0.219512 
r177 77 417 2.07647 
r178 76 91 394.95 
r179 76 77 4.2601 
r180 75 85 2.07647 
r181 74 91 394.95 
r182 74 75 4.2601 
r183 66 393 0.160878 
r184 58 415 2.07647 
r185 57 72 394.95 
r186 57 58 4.2601 
r187 56 66 2.07647 
r188 55 72 394.95 
r189 55 56 4.2601 
r190 35 66 0.327902 
r191 390 35 0.219512 
r192 27 414 2.07647 
r193 26 41 394.95 